
 OpenBabel03102508543D

 24 24  0  0  0  0  0  0  0  0999 V2000
    0.9217    0.0239   -0.0575 C   0  0  0  0  0  0  0  0  0  0  0  0
    2.3417    0.0239   -0.0575 O   0  0  0  0  0  0  0  0  0  0  0  0
    3.0517    0.9009   -0.9196 C   0  0  0  0  0  0  0  0  0  0  0  0
    4.4919    0.9009   -0.9196 C   0  0  0  0  0  0  0  0  0  0  0  0
    5.2120    0.0114   -0.0452 C   0  0  0  0  0  0  0  0  0  0  0  0
    4.4919   -0.8780    0.8292 C   0  0  0  0  0  0  0  0  0  0  0  0
    5.2120   -1.7675    1.7035 C   0  0  0  0  0  0  0  0  0  0  0  0
    2.3316    1.7903   -1.7939 C   0  0  0  0  0  0  0  0  0  0  0  0
    4.4520   -2.7062    2.6263 C   0  0  0  0  0  0  0  0  0  0  0  0
    5.1322   -3.5464    3.4522 C   0  0  0  0  0  0  0  0  0  0  0  0
    4.3722   -4.4851    4.3750 C   0  0  0  0  0  0  0  0  0  0  0  0
    3.1013   -4.4851    4.3750 O   0  0  0  0  0  0  0  0  0  0  0  0
    5.0822   -5.3621    5.2371 O   0  0  0  0  0  0  0  0  0  0  0  0
    5.2019    1.7779   -1.7816 O   0  0  0  0  0  0  0  0  0  0  0  0
    0.5651   -0.6955    0.6497 H   0  0  0  0  0  0  0  0  0  0  0  0
    0.5651   -0.2288   -1.0341 H   0  0  0  0  0  0  0  0  0  0  0  0
    0.5651    0.9961    0.2120 H   0  0  0  0  0  0  0  0  0  0  0  0
    6.2440    0.0114   -0.0452 H   0  0  0  0  0  0  0  0  0  0  0  0
    3.4599   -0.8780    0.8292 H   0  0  0  0  0  0  0  0  0  0  0  0
    1.8156    2.4277   -2.4204 H   0  0  0  0  0  0  0  0  0  0  0  0
    3.4200   -2.7062    2.6263 H   0  0  0  0  0  0  0  0  0  0  0  0
    6.1642   -3.5464    3.4522 H   0  0  0  0  0  0  0  0  0  0  0  0
    6.0192   -5.3621    5.2371 H   0  0  0  0  0  0  0  0  0  0  0  0
    4.7334    2.3566   -2.3505 H   0  0  0  0  0  0  0  0  0  0  0  0
  1  2  1  0  0  0  0
  1 15  1  0  0  0  0
  1 16  1  0  0  0  0
  1 17  1  0  0  0  0
  2  3  1  0  0  0  0
  3  4  2  0  0  0  0
  3  8  1  0  0  0  0
  4  5  1  0  0  0  0
  4 14  1  0  0  0  0
  5  6  2  0  0  0  0
  5 18  1  0  0  0  0
  6  7  1  0  0  0  0
  6 19  1  0  0  0  0
  7  8  2  0  0  0  0
  7  9  1  0  0  0  0
  8 20  1  0  0  0  0
  9 10  2  0  0  0  0
  9 21  1  0  0  0  0
 10 11  1  0  0  0  0
 10 22  1  0  0  0  0
 11 12  2  0  0  0  0
 11 13  1  0  0  0  0
 13 23  1  0  0  0  0
 14 24  1  0  0  0  0
M  END
$$$$
