
 OpenBabel03102508543D

 28 30  0  0  0  0  0  0  0  0999 V2000
    1.0449    0.0886   -0.0120 C   0  0  0  0  0  0  0  0  0  0  0  0
    2.4851    0.0886   -0.0120 C   0  0  0  0  0  0  0  0  0  0  0  0
    3.2052    1.1825    0.5872 C   0  0  0  0  0  0  0  0  0  0  0  0
    4.6454    1.1825    0.5872 C   0  0  0  0  0  0  0  0  0  0  0  0
    5.3655    0.0886   -0.0120 C   0  0  0  0  0  0  0  0  0  0  0  0
    0.3248   -1.0053   -0.6112 C   0  0  0  0  0  0  0  0  0  0  0  0
    5.4054    2.3370    1.2195 C   0  0  0  0  0  0  0  0  0  0  0  0
    6.8456    2.3370    1.2195 C   0  0  0  0  0  0  0  0  0  0  0  0
    7.5657    1.2431    0.6204 C   0  0  0  0  0  0  0  0  0  0  0  0
    8.8366    1.2431    0.6204 O   0  0  0  0  0  0  0  0  0  0  0  0
    6.8456    0.1492    0.0212 C   0  0  0  0  0  0  0  0  0  0  0  0
    7.5657   -0.9447   -0.5780 C   0  0  0  0  0  0  0  0  0  0  0  0
    6.8456   -2.0386   -1.1772 C   0  0  0  0  0  0  0  0  0  0  0  0
    7.5657   -3.1325   -1.7764 C   0  0  0  0  0  0  0  0  0  0  0  0
    6.8456   -4.2264   -2.3756 C   0  0  0  0  0  0  0  0  0  0  0  0
    5.4054    0.1492    0.0212 C   0  0  0  0  0  0  0  0  0  0  0  0
    4.7326    3.3589    1.7793 O   0  0  0  0  0  0  0  0  0  0  0  0
    7.5556    3.4155    1.8103 O   0  0  0  0  0  0  0  0  0  0  0  0
    0.5289    0.8724    0.4173 H   0  0  0  0  0  0  0  0  0  0  0  0
    3.0011   -0.6953   -0.4414 H   0  0  0  0  0  0  0  0  0  0  0  0
    2.6892    1.9663    1.0165 H   0  0  0  0  0  0  0  0  0  0  0  0
    6.3151   -0.2658   -0.2061 H   0  0  0  0  0  0  0  0  0  0  0  0
   -0.5000   -1.5494   -0.9092 H   0  0  0  0  0  0  0  0  0  0  0  0
    8.5977   -0.9447   -0.5780 H   0  0  0  0  0  0  0  0  0  0  0  0
    5.8136   -2.0386   -1.1772 H   0  0  0  0  0  0  0  0  0  0  0  0
    8.5977   -3.1325   -1.7764 H   0  0  0  0  0  0  0  0  0  0  0  0
    6.7207   -5.1249   -2.8677 H   0  0  0  0  0  0  0  0  0  0  0  0
    7.0871    4.1272    2.2002 H   0  0  0  0  0  0  0  0  0  0  0  0
  1  2  2  0  0  0  0
  1  6  1  0  0  0  0
  1 19  1  0  0  0  0
  2  3  1  0  0  0  0
  2 20  1  0  0  0  0
  3  4  2  0  0  0  0
  3 21  1  0  0  0  0
  4  5  1  0  0  0  0
  4  7  1  0  0  0  0
  5  6  2  0  0  0  0
  5 22  1  0  0  0  0
  6 23  1  0  0  0  0
  7  8  2  0  0  0  0
  7 17  1  0  0  0  0
  8  9  1  0  0  0  0
  8 18  1  0  0  0  0
  9 10  2  0  0  0  0
  9 11  1  0  0  0  0
 11 12  2  0  0  0  0
 11 16  1  0  0  0  0
 12 13  1  0  0  0  0
 12 24  1  0  0  0  0
 13 14  2  0  0  0  0
 13 25  1  0  0  0  0
 14 15  1  0  0  0  0
 14 26  1  0  0  0  0
 15 16  2  0  0  0  0
 15 27  1  0  0  0  0
 16 17  1  0  0  0  0
 18 28  1  0  0  0  0
M  END
$$$$
