
 OpenBabel03102508543D

 35 37  0  0  0  0  0  0  0  0999 V2000
    1.0569    0.0431    0.0700 C   0  0  0  0  0  0  0  0  0  0  0  0
    2.4769    0.0431    0.0700 O   0  0  0  0  0  0  0  0  0  0  0  0
    3.1869   -0.4104   -1.0730 C   0  0  0  0  0  0  0  0  0  0  0  0
    4.6271   -0.4104   -1.0730 C   0  0  0  0  0  0  0  0  0  0  0  0
    5.3472    0.0496    0.0863 C   0  0  0  0  0  0  0  0  0  0  0  0
    4.6271    0.5096    1.2456 C   0  0  0  0  0  0  0  0  0  0  0  0
    5.3472    0.9696    2.4049 C   0  0  0  0  0  0  0  0  0  0  0  0
    2.4668   -0.8704   -2.2324 C   0  0  0  0  0  0  0  0  0  0  0  0
    4.5872    1.4551    3.6285 C   0  0  0  0  0  0  0  0  0  0  0  0
    5.3073    1.9151    4.7878 C   0  0  0  0  0  0  0  0  0  0  0  0
    6.7475    1.9151    4.7878 C   0  0  0  0  0  0  0  0  0  0  0  0
    7.3829    2.3211    5.8108 O   0  0  0  0  0  0  0  0  0  0  0  0
    7.4676    1.4551    3.6285 C   0  0  0  0  0  0  0  0  0  0  0  0
    8.9078    1.4551    3.6285 C   0  0  0  0  0  0  0  0  0  0  0  0
    9.6279    1.9151    4.7878 C   0  0  0  0  0  0  0  0  0  0  0  0
    8.9078    2.3751    5.9471 C   0  0  0  0  0  0  0  0  0  0  0  0
    7.4676    2.3751    5.9471 C   0  0  0  0  0  0  0  0  0  0  0  0
    6.7475    0.9951    2.4692 C   0  0  0  0  0  0  0  0  0  0  0  0
    3.2417    1.4551    3.6285 O   0  0  0  0  0  0  0  0  0  0  0  0
    9.6178    2.8287    7.0902 O   0  0  0  0  0  0  0  0  0  0  0  0
    9.6178    1.0016    2.4854 O   0  0  0  0  0  0  0  0  0  0  0  0
    4.5973    2.3687    5.9309 O   0  0  0  0  0  0  0  0  0  0  0  0
    5.3371   -0.8640   -2.2161 O   0  0  0  0  0  0  0  0  0  0  0  0
    0.7002    0.4152    1.0077 H   0  0  0  0  0  0  0  0  0  0  0  0
    0.7002   -0.9550   -0.0766 H   0  0  0  0  0  0  0  0  0  0  0  0
    0.7002    0.6692   -0.7210 H   0  0  0  0  0  0  0  0  0  0  0  0
    6.3792    0.0496    0.0863 H   0  0  0  0  0  0  0  0  0  0  0  0
    3.5951    0.5096    1.2456 H   0  0  0  0  0  0  0  0  0  0  0  0
    1.9508   -1.2001   -3.0631 H   0  0  0  0  0  0  0  0  0  0  0  0
   10.6599    1.9151    4.7878 H   0  0  0  0  0  0  0  0  0  0  0  0
    6.8104    2.6686    6.6867 H   0  0  0  0  0  0  0  0  0  0  0  0
   10.5548    2.8287    7.0902 H   0  0  0  0  0  0  0  0  0  0  0  0
    9.1493    0.7023    1.7312 H   0  0  0  0  0  0  0  0  0  0  0  0
    3.6603    2.3687    5.9309 H   0  0  0  0  0  0  0  0  0  0  0  0
    4.8686   -1.1633   -2.9704 H   0  0  0  0  0  0  0  0  0  0  0  0
  1  2  1  0  0  0  0
  1 24  1  0  0  0  0
  1 25  1  0  0  0  0
  1 26  1  0  0  0  0
  2  3  1  0  0  0  0
  3  4  2  0  0  0  0
  3  8  1  0  0  0  0
  4  5  1  0  0  0  0
  4 23  1  0  0  0  0
  5  6  2  0  0  0  0
  5 27  1  0  0  0  0
  6  7  1  0  0  0  0
  6 28  1  0  0  0  0
  7  8  2  0  0  0  0
  7  9  1  0  0  0  0
  8 29  1  0  0  0  0
  9 10  2  0  0  0  0
  9 19  1  0  0  0  0
 10 11  1  0  0  0  0
 10 22  1  0  0  0  0
 11 12  2  0  0  0  0
 11 13  1  0  0  0  0
 13 14  2  0  0  0  0
 13 18  1  0  0  0  0
 14 15  1  0  0  0  0
 14 21  1  0  0  0  0
 15 16  2  0  0  0  0
 15 30  1  0  0  0  0
 16 17  1  0  0  0  0
 16 20  1  0  0  0  0
 17 18  2  0  0  0  0
 17 31  1  0  0  0  0
 18 19  1  0  0  0  0
 20 32  1  0  0  0  0
 21 33  1  0  0  0  0
 22 34  1  0  0  0  0
 23 35  1  0  0  0  0
M  END
$$$$
