
 OpenBabel03102508543D

 52 55  0  0  1  0  0  0  0  0999 V2000
    0.9421    0.0093    0.0810 C   0  0  0  0  0  0  0  0  0  0  0  0
    2.3823    0.0093    0.0810 C   0  0  0  0  0  0  0  0  0  0  0  0
    3.1024    0.2150   -1.1492 C   0  0  0  0  0  0  0  0  0  0  0  0
    2.3823    0.4206   -2.3793 C   0  0  0  0  0  0  0  0  0  0  0  0
    0.9421    0.4206   -2.3793 C   0  0  0  0  0  0  0  0  0  0  0  0
    0.2220   -0.1964    1.3112 C   0  0  0  0  0  0  0  0  0  0  0  0
   -1.2980   -0.1964    1.3112 C   0  0  0  0  0  0  0  0  0  0  0  0
   -2.0181   -0.4021    2.5413 C   0  0  0  0  0  0  0  0  0  0  0  0
   -1.2980   -0.6077    3.7715 C   0  0  0  0  0  0  0  0  0  0  0  0
   -1.9335   -0.7892    4.8571 O   0  0  0  0  0  0  0  0  0  0  0  0
    0.1422   -0.6077    3.7715 C   0  0  0  0  0  0  0  0  0  0  0  0
    0.8623   -0.8134    5.0017 C   0  0  0  0  0  0  0  0  0  0  0  0
    0.1422   -1.0191    6.2319 C   0  0  0  0  0  0  0  0  0  0  0  0
   -1.2980   -1.0191    6.2319 C   0  0  0  0  0  0  0  0  0  0  0  0
   -2.0181   -0.8134    5.0017 C   0  0  0  0  0  0  0  0  0  0  0  0
    0.8623   -0.4021    2.5413 C   0  0  0  0  0  0  0  0  0  0  0  0
   -1.9707   -0.0042    0.1619 O   0  0  0  0  0  0  0  0  0  0  0  0
   -2.0080   -1.2219    7.4448 O   0  0  0  0  0  0  0  0  0  0  0  0
    2.2823   -0.8134    5.0017 O   0  0  0  0  0  0  0  0  0  0  0  0
   -3.4381   -0.4021    2.5413 O   0  0  0  0  0  0  0  0  0  0  0  0
   -4.1481   -0.6049    3.7543 C   0  0  1  0  0  0  0  0  0  0  0  0
   -6.2798    1.2034    7.9912 C   0  0  1  0  0  0  0  0  0  0  0  0
   -6.6470    0.1107    7.0004 C   0  0  2  0  0  0  0  0  0  0  0  0
   -5.8870    0.3278    5.7021 C   0  0  1  0  0  0  0  0  0  0  0  0
   -6.2542   -0.7649    4.7113 C   0  0  2  0  0  0  0  0  0  0  0  0
   -5.5442   -0.5621    3.4983 O   0  0  0  0  0  0  0  0  0  0  0  0
   -7.7486   -0.7191    4.4373 C   0  0  0  0  0  0  0  0  0  0  0  0
   -8.4586   -0.9218    5.6502 O   0  0  0  0  0  0  0  0  0  0  0  0
   -6.2300    1.5941    5.1588 O   0  0  0  0  0  0  0  0  0  0  0  0
   -8.0431    0.1535    6.7445 O   0  0  0  0  0  0  0  0  0  0  0  0
   -4.8837    1.1606    8.2471 O   0  0  0  0  0  0  0  0  0  0  0  0
    4.5224    0.2150   -1.1492 O   0  0  0  0  0  0  0  0  0  0  0  0
    0.4261    0.1567   -0.8005 H   0  0  0  0  0  0  0  0  0  0  0  0
    2.8983   -0.1381    0.9625 H   0  0  0  0  0  0  0  0  0  0  0  0
    2.8983    0.5680   -3.2609 H   0  0  0  0  0  0  0  0  0  0  0  0
    0.2849    0.5519   -3.1642 H   0  0  0  0  0  0  0  0  0  0  0  0
    0.6582   -1.1665    7.1134 H   0  0  0  0  0  0  0  0  0  0  0  0
   -3.0358   -0.7852    4.8328 H   0  0  0  0  0  0  0  0  0  0  0  0
   -1.5395   -1.3557    8.2451 H   0  0  0  0  0  0  0  0  0  0  0  0
    2.7508   -0.6796    4.2013 H   0  0  0  0  0  0  0  0  0  0  0  0
   -3.2413   -1.1362    3.9548 H   0  0  0  0  0  0  0  0  0  0  0  0
   -6.8807    1.7752    8.6671 H   0  0  0  0  0  0  0  0  0  0  0  0
   -6.3885   -0.8435    7.4097 H   0  0  0  0  0  0  0  0  0  0  0  0
   -4.8350    0.2955    5.8949 H   0  0  0  0  0  0  0  0  0  0  0  0
   -5.9957   -1.7191    5.1206 H   0  0  0  0  0  0  0  0  0  0  0  0
   -8.0071   -1.4882    3.7398 H   0  0  0  0  0  0  0  0  0  0  0  0
   -8.0071    0.2352    4.0280 H   0  0  0  0  0  0  0  0  0  0  0  0
   -8.2243   -1.7869    6.0213 H   0  0  0  0  0  0  0  0  0  0  0  0
   -7.1837    1.6234    4.9840 H   0  0  0  0  0  0  0  0  0  0  0  0
   -8.2774    1.0186    6.3734 H   0  0  0  0  0  0  0  0  0  0  0  0
   -4.4479    0.6162    7.5728 H   0  0  0  0  0  0  0  0  0  0  0  0
    4.9909    0.0812   -0.3488 H   0  0  0  0  0  0  0  0  0  0  0  0
  1  2  2  0  0  0  0
  1  6  1  0  0  0  0
  1 33  1  0  0  0  0
  2  3  1  0  0  0  0
  2 34  1  0  0  0  0
  3  4  2  0  0  0  0
  3 32  1  0  0  0  0
  4  5  1  0  0  0  0
  4 35  1  0  0  0  0
  5  6  2  0  0  0  0
  5 36  1  0  0  0  0
  6  7  1  0  0  0  0
  7  8  2  0  0  0  0
  7 17  1  0  0  0  0
  8  9  1  0  0  0  0
  8 20  1  0  0  0  0
  9 10  2  0  0  0  0
  9 11  1  0  0  0  0
 11 12  2  0  0  0  0
 11 16  1  0  0  0  0
 12 13  1  0  0  0  0
 12 19  1  0  0  0  0
 13 14  2  0  0  0  0
 13 37  1  0  0  0  0
 14 15  1  0  0  0  0
 14 18  1  0  0  0  0
 15 16  2  0  0  0  0
 15 38  1  0  0  0  0
 16 17  1  0  0  0  0
 18 39  1  0  0  0  0
 19 40  1  0  0  0  0
 20 21  1  0  0  0  0
 21 22  1  0  0  0  0
 21 26  1  0  0  0  0
 21 41  1  1  0  0  0
 22 23  1  0  0  0  0
 22 31  1  0  0  0  0
 22 42  1  6  0  0  0
 23 24  1  0  0  0  0
 23 30  1  0  0  0  0
 23 43  1  1  0  0  0
 24 25  1  0  0  0  0
 24 29  1  0  0  0  0
 24 44  1  1  0  0  0
 25 26  1  0  0  0  0
 25 27  1  0  0  0  0
 25 45  1  1  0  0  0
 27 28  1  0  0  0  0
 27 46  1  0  0  0  0
 27 47  1  0  0  0  0
 28 48  1  0  0  0  0
 29 49  1  0  0  0  0
 30 50  1  0  0  0  0
 31 51  1  0  0  0  0
 32 52  1  0  0  0  0
M  END
$$$$
