
 OpenBabel03102508543D

 31 33  0  0  0  0  0  0  0  0999 V2000
    1.0065    0.0694   -0.0717 C   0  0  0  0  0  0  0  0  0  0  0  0
    2.4467    0.0694   -0.0717 C   0  0  0  0  0  0  0  0  0  0  0  0
    3.1668    1.2470   -0.4825 C   0  0  0  0  0  0  0  0  0  0  0  0
    2.4467    2.4247   -0.8932 C   0  0  0  0  0  0  0  0  0  0  0  0
    1.0065    2.4247   -0.8932 C   0  0  0  0  0  0  0  0  0  0  0  0
    0.2864   -1.1083    0.3390 C   0  0  0  0  0  0  0  0  0  0  0  0
   -1.2336   -1.1083    0.3390 C   0  0  0  0  0  0  0  0  0  0  0  0
   -1.9537   -2.2860    0.7497 C   0  0  0  0  0  0  0  0  0  0  0  0
   -1.2336   -3.4637    1.1604 C   0  0  0  0  0  0  0  0  0  0  0  0
   -1.8690   -4.5030    1.5228 O   0  0  0  0  0  0  0  0  0  0  0  0
    0.2066   -3.4637    1.1604 C   0  0  0  0  0  0  0  0  0  0  0  0
    0.9267   -4.6414    1.5711 C   0  0  0  0  0  0  0  0  0  0  0  0
    0.2066   -5.8191    1.9818 C   0  0  0  0  0  0  0  0  0  0  0  0
   -1.2336   -5.8191    1.9818 C   0  0  0  0  0  0  0  0  0  0  0  0
   -1.9537   -4.6414    1.5711 C   0  0  0  0  0  0  0  0  0  0  0  0
    0.9267   -2.2860    0.7497 C   0  0  0  0  0  0  0  0  0  0  0  0
   -1.9063   -0.0081   -0.0447 O   0  0  0  0  0  0  0  0  0  0  0  0
   -1.9436   -6.9803    2.3868 O   0  0  0  0  0  0  0  0  0  0  0  0
    2.3467   -4.6414    1.5711 O   0  0  0  0  0  0  0  0  0  0  0  0
   -3.3737   -2.2860    0.7497 O   0  0  0  0  0  0  0  0  0  0  0  0
    4.5868    1.2470   -0.4825 O   0  0  0  0  0  0  0  0  0  0  0  0
    0.4905    0.9132   -0.3660 H   0  0  0  0  0  0  0  0  0  0  0  0
    2.9627   -0.7745    0.2226 H   0  0  0  0  0  0  0  0  0  0  0  0
    2.9627    3.2686   -1.1875 H   0  0  0  0  0  0  0  0  0  0  0  0
    0.3493    3.1761   -1.1552 H   0  0  0  0  0  0  0  0  0  0  0  0
    0.7226   -6.6630    2.2761 H   0  0  0  0  0  0  0  0  0  0  0  0
   -2.9714   -4.4797    1.5147 H   0  0  0  0  0  0  0  0  0  0  0  0
   -1.4751   -7.7465    2.6540 H   0  0  0  0  0  0  0  0  0  0  0  0
    2.8152   -3.8752    1.3039 H   0  0  0  0  0  0  0  0  0  0  0  0
   -3.8422   -1.5198    0.4825 H   0  0  0  0  0  0  0  0  0  0  0  0
    5.0553    0.4808   -0.2152 H   0  0  0  0  0  0  0  0  0  0  0  0
  1  2  2  0  0  0  0
  1  6  1  0  0  0  0
  1 22  1  0  0  0  0
  2  3  1  0  0  0  0
  2 23  1  0  0  0  0
  3  4  2  0  0  0  0
  3 21  1  0  0  0  0
  4  5  1  0  0  0  0
  4 24  1  0  0  0  0
  5  6  2  0  0  0  0
  5 25  1  0  0  0  0
  6  7  1  0  0  0  0
  7  8  2  0  0  0  0
  7 17  1  0  0  0  0
  8  9  1  0  0  0  0
  8 20  1  0  0  0  0
  9 10  2  0  0  0  0
  9 11  1  0  0  0  0
 11 12  2  0  0  0  0
 11 16  1  0  0  0  0
 12 13  1  0  0  0  0
 12 19  1  0  0  0  0
 13 14  2  0  0  0  0
 13 26  1  0  0  0  0
 14 15  1  0  0  0  0
 14 18  1  0  0  0  0
 15 16  2  0  0  0  0
 15 27  1  0  0  0  0
 16 17  1  0  0  0  0
 18 28  1  0  0  0  0
 19 29  1  0  0  0  0
 20 30  1  0  0  0  0
 21 31  1  0  0  0  0
M  END
$$$$
