
 OpenBabel03102508543D

154162  0  0  1  0  0  0  0  0999 V2000
    0.9347    0.0727   -0.0212 C   0  0  0  0  0  0  0  0  0  0  0  0
    2.4547    0.0727   -0.0212 C   0  0  1  0  0  0  0  0  0  0  0  0
    6.8814    0.7547    2.3672 C   0  0  1  0  0  0  0  0  0  0  0  0
    6.3747   -0.2365    1.3322 C   0  0  2  0  0  0  0  0  0  0  0  0
    4.8547   -0.2365    1.3322 C   0  0  2  0  0  0  0  0  0  0  0  0
    4.3480   -1.2277    0.2972 C   0  0  1  0  0  0  0  0  0  0  0  0
    2.9280   -1.2277    0.2972 O   0  0  0  0  0  0  0  0  0  0  0  0
    4.8214   -0.8533   -0.9882 O   0  0  0  0  0  0  0  0  0  0  0  0
    6.2413   -0.8566   -0.9769 C   0  0  2  0  0  0  0  0  0  0  0  0
    4.8884    2.8514   -4.1684 C   0  0  2  0  0  0  0  0  0  0  0  0
    6.3084    2.8482   -4.1572 O   0  0  0  0  0  0  0  0  0  0  0  0
    6.7768    1.5290   -3.9188 C   0  0  2  0  0  0  0  0  0  0  0  0
    6.2583    1.0423   -2.5755 C   0  0  1  0  0  0  0  0  0  0  0  0
    6.7597   -0.3698   -2.3203 C   0  0  1  0  0  0  0  0  0  0  0  0
    8.1797   -0.3731   -2.3091 O   0  0  0  0  0  0  0  0  0  0  0  0
    6.7255    1.9034   -1.5476 O   0  0  0  0  0  0  0  0  0  0  0  0
    6.2207    3.1953   -1.8516 C   0  0  1  0  0  0  0  0  0  0  0  0
    2.6036    6.7363   -1.4733 C   0  0  1  0  0  0  0  0  0  0  0  0
    4.1231    6.7683   -1.4943 C   0  0  1  0  0  0  0  0  0  0  0  0
    4.6635    5.3854   -1.1689 C   0  0  2  0  0  0  0  0  0  0  0  0
    6.1830    5.4174   -1.1899 C   0  0  1  0  0  0  0  0  0  0  0  0
    6.6879    4.1255   -0.8858 O   0  0  0  0  0  0  0  0  0  0  0  0
    6.6620    5.8366   -2.5702 C   0  0  0  0  0  0  0  0  0  0  0  0
    4.1963    4.4553   -2.1347 O   0  0  0  0  0  0  0  0  0  0  0  0
    4.5705    7.1599   -2.7838 O   0  0  0  0  0  0  0  0  0  0  0  0
    2.1363    5.8062   -2.4392 O   0  0  0  0  0  0  0  0  0  0  0  0
    8.1967    1.5258   -3.9076 O   0  0  0  0  0  0  0  0  0  0  0  0
    8.6811    1.9805   -5.1626 C   0  0  1  0  0  0  0  0  0  0  0  0
   12.2148    4.8887   -5.8981 C   0  0  0  0  0  0  0  0  0  0  0  0
   12.8395    3.5120   -5.7404 C   0  0  0  0  0  0  0  0  0  0  0  0
   12.2161    2.5549   -6.7433 C   0  0  2  0  0  0  0  0  0  0  0  0
   12.8408    1.1782   -6.5855 C   0  0  1  0  0  0  0  0  0  0  0  0
    8.7256    1.3513   -3.4248 C   0  0  0  0  0  0  0  0  0  0  0  0
    9.3503   -0.0255   -3.2671 C   0  0  0  0  0  0  0  0  0  0  0  0
   10.8469    0.0657   -3.5164 C   0  0  1  0  0  0  0  0  0  0  0  0
   11.0955    0.5764   -4.9263 C   0  0  2  0  0  0  0  0  0  0  0  0
   12.5922    0.6675   -5.1756 C   0  0  2  0  0  0  0  0  0  0  0  0
   13.2168   -0.7092   -5.0179 C   0  0  0  0  0  0  0  0  0  0  0  0
    9.8440    2.8178   -7.4731 C   0  0  0  0  0  0  0  0  0  0  0  0
   10.7195    2.4637   -6.4939 C   0  0  0  0  0  0  0  0  0  0  0  0
   10.2010    1.9770   -5.1506 C   0  0  0  0  0  0  0  0  0  0  0  0
   10.4708    1.9531   -5.0841 C   0  0  0  0  0  0  0  0  0  0  0  0
    8.9742    1.8619   -4.8347 C   0  0  1  0  0  0  0  0  0  0  0  0
    4.7177    2.4340   -4.2795 C   0  0  2  0  0  0  0  0  0  0  0  0
    6.2135    2.2509   -4.4779 C   0  0  0  0  0  0  0  0  0  0  0  0
    6.9932    3.3192   -4.7967 C   0  0  0  0  0  0  0  0  0  0  0  0
    8.3906    3.1481   -4.9821 O   0  0  0  0  0  0  0  0  0  0  0  0
    6.3686    4.6959   -4.9544 C   0  0  0  0  0  0  0  0  0  0  0  0
    4.8719    4.6047   -4.7051 C   0  0  0  0  0  0  0  0  0  0  0  0
    4.2472    5.9814   -4.8628 C   0  0  1  0  0  0  0  0  0  0  0  0
    4.4959    6.4921   -6.2727 C   0  0  0  0  0  0  0  0  0  0  0  0
    2.7506    5.8903   -4.6135 C   0  0  0  0  0  0  0  0  0  0  0  0
    2.1670    7.1764   -4.7608 O   0  0  0  0  0  0  0  0  0  0  0  0
    0.7689    7.0913   -4.5279 C   0  0  1  0  0  0  0  0  0  0  0  0
   -3.2068    7.1798   -1.3733 C   0  0  1  0  0  0  0  0  0  0  0  0
   -2.9581    7.6905   -2.7832 C   0  0  2  0  0  0  0  0  0  0  0  0
   -1.4615    7.7816   -3.0325 C   0  0  1  0  0  0  0  0  0  0  0  0
   -1.2129    8.2923   -4.4424 C   0  0  2  0  0  0  0  0  0  0  0  0
    0.1853    8.3774   -4.6753 O   0  0  0  0  0  0  0  0  0  0  0  0
   -1.8376    9.6690   -4.6001 C   0  0  0  0  0  0  0  0  0  0  0  0
   -3.2357    9.5839   -4.3672 O   0  0  0  0  0  0  0  0  0  0  0  0
   -0.8792    8.6758   -2.0956 O   0  0  0  0  0  0  0  0  0  0  0  0
   -3.5417    8.9766   -2.9305 O   0  0  0  0  0  0  0  0  0  0  0  0
   -2.6232    5.8937   -1.2259 O   0  0  0  0  0  0  0  0  0  0  0  0
    6.8382    0.8742   -4.3202 C   0  0  0  0  0  0  0  0  0  0  0  0
   11.4716   -1.3110   -3.3587 C   0  0  0  0  0  0  0  0  0  0  0  0
   12.4647    3.0656   -8.1531 C   0  0  0  0  0  0  0  0  0  0  0  0
    4.3870    4.2635   -4.4236 C   0  0  0  0  0  0  0  0  0  0  0  0
    2.9670    4.2668   -4.4348 O   0  0  0  0  0  0  0  0  0  0  0  0
    4.3814    1.0639    1.0138 O   0  0  0  0  0  0  0  0  0  0  0  0
    6.8480   -1.5369    1.6507 O   0  0  0  0  0  0  0  0  0  0  0  0
    6.4080    2.0550    2.0488 O   0  0  0  0  0  0  0  0  0  0  0  0
    0.5780    1.0525   -0.2612 H   0  0  0  0  0  0  0  0  0  0  0  0
    0.5780   -0.2094    0.9473 H   0  0  0  0  0  0  0  0  0  0  0  0
    0.5780   -0.6250   -0.7498 H   0  0  0  0  0  0  0  0  0  0  0  0
    2.2484    0.8573   -0.7189 H   0  0  0  0  0  0  0  0  0  0  0  0
    7.6775    0.6878    3.0790 H   0  0  0  0  0  0  0  0  0  0  0  0
    6.7314    0.0456    0.3637 H   0  0  0  0  0  0  0  0  0  0  0  0
    4.4980   -0.5186    2.3008 H   0  0  0  0  0  0  0  0  0  0  0  0
    4.7047   -2.2075    0.5371 H   0  0  0  0  0  0  0  0  0  0  0  0
    6.7201   -1.4014   -0.1903 H   0  0  0  0  0  0  0  0  0  0  0  0
    3.9479    2.6545   -4.6392 H   0  0  0  0  0  0  0  0  0  0  0  0
    6.4247    0.8801   -4.6934 H   0  0  0  0  0  0  0  0  0  0  0  0
    5.1884    1.0447   -2.5839 H   0  0  0  0  0  0  0  0  0  0  0  0
    6.4077   -1.0187   -3.0949 H   0  0  0  0  0  0  0  0  0  0  0  0
    8.4988    0.2152   -1.6069 H   0  0  0  0  0  0  0  0  0  0  0  0
    6.2488    2.7506   -2.8244 H   0  0  0  0  0  0  0  0  0  0  0  0
    1.8879    7.4253   -1.0757 H   0  0  0  0  0  0  0  0  0  0  0  0
    4.4752    7.4692   -0.7665 H   0  0  0  0  0  0  0  0  0  0  0  0
    4.3264    5.0903   -0.1972 H   0  0  0  0  0  0  0  0  0  0  0  0
    6.5351    6.1183   -0.4621 H   0  0  0  0  0  0  0  0  0  0  0  0
    6.3099    5.1357   -3.2980 H   0  0  0  0  0  0  0  0  0  0  0  0
    7.7316    5.8591   -2.5850 H   0  0  0  0  0  0  0  0  0  0  0  0
    6.2815    6.8101   -2.7993 H   0  0  0  0  0  0  0  0  0  0  0  0
    4.5019    4.7228   -3.0156 H   0  0  0  0  0  0  0  0  0  0  0  0
    4.2513    6.5245   -3.4436 H   0  0  0  0  0  0  0  0  0  0  0  0
    2.8701    5.2390   -2.7232 H   0  0  0  0  0  0  0  0  0  0  0  0
    7.7469    1.7801   -5.6444 H   0  0  0  0  0  0  0  0  0  0  0  0
   12.4223    5.6137   -5.1390 H   0  0  0  0  0  0  0  0  0  0  0  0
   12.3439    5.5906   -6.6954 H   0  0  0  0  0  0  0  0  0  0  0  0
   12.6644    3.1525   -4.7479 H   0  0  0  0  0  0  0  0  0  0  0  0
   13.8930    3.5762   -5.9159 H   0  0  0  0  0  0  0  0  0  0  0  0
   13.5474    0.8664   -7.3260 H   0  0  0  0  0  0  0  0  0  0  0  0
    7.7562    1.4083   -3.8742 H   0  0  0  0  0  0  0  0  0  0  0  0
    8.4834    2.0721   -2.6721 H   0  0  0  0  0  0  0  0  0  0  0  0
    8.9114   -0.6992   -3.9731 H   0  0  0  0  0  0  0  0  0  0  0  0
    9.1752   -0.3850   -2.2746 H   0  0  0  0  0  0  0  0  0  0  0  0
   10.6567   -0.0974   -5.6323 H   0  0  0  0  0  0  0  0  0  0  0  0
   13.0310    1.3413   -4.4697 H   0  0  0  0  0  0  0  0  0  0  0  0
   12.9056   -1.4293   -4.2902 H   0  0  0  0  0  0  0  0  0  0  0  0
   14.1046   -1.3003   -5.1033 H   0  0  0  0  0  0  0  0  0  0  0  0
    9.1744    3.2988   -8.0939 H   0  0  0  0  0  0  0  0  0  0  0  0
   10.5531    2.6259   -4.3760 H   0  0  0  0  0  0  0  0  0  0  0  0
   10.5540    0.9830   -4.9710 H   0  0  0  0  0  0  0  0  0  0  0  0
   10.6459    2.3126   -6.0765 H   0  0  0  0  0  0  0  0  0  0  0  0
   10.9097    2.6268   -4.3781 H   0  0  0  0  0  0  0  0  0  0  0  0
    9.3453    0.8664   -4.7082 H   0  0  0  0  0  0  0  0  0  0  0  0
    3.6720    2.6547   -4.2277 H   0  0  0  0  0  0  0  0  0  0  0  0
    6.5436    5.0554   -5.9469 H   0  0  0  0  0  0  0  0  0  0  0  0
    6.8074    5.3696   -4.2485 H   0  0  0  0  0  0  0  0  0  0  0  0
    4.6969    4.2452   -3.7126 H   0  0  0  0  0  0  0  0  0  0  0  0
    4.4331    3.9310   -5.4111 H   0  0  0  0  0  0  0  0  0  0  0  0
    4.6861    6.6552   -4.1569 H   0  0  0  0  0  0  0  0  0  0  0  0
    4.0571    5.8183   -6.9787 H   0  0  0  0  0  0  0  0  0  0  0  0
    5.5494    6.5563   -6.4482 H   0  0  0  0  0  0  0  0  0  0  0  0
    4.0561    7.4613   -6.3837 H   0  0  0  0  0  0  0  0  0  0  0  0
    2.5756    5.5308   -3.6210 H   0  0  0  0  0  0  0  0  0  0  0  0
    2.3118    5.2165   -5.3195 H   0  0  0  0  0  0  0  0  0  0  0  0
    0.9793    6.1042   -4.8831 H   0  0  0  0  0  0  0  0  0  0  0  0
   -3.9092    7.4836   -0.6255 H   0  0  0  0  0  0  0  0  0  0  0  0
   -3.3970    7.0167   -3.4891 H   0  0  0  0  0  0  0  0  0  0  0  0
   -1.0218    6.8125   -2.9215 H   0  0  0  0  0  0  0  0  0  0  0  0
   -1.6517    7.6185   -5.1483 H   0  0  0  0  0  0  0  0  0  0  0  0
   -1.6625   10.0285   -5.5926 H   0  0  0  0  0  0  0  0  0  0  0  0
   -1.3987   10.3428   -3.8941 H   0  0  0  0  0  0  0  0  0  0  0  0
   -3.6335    8.9731   -5.0072 H   0  0  0  0  0  0  0  0  0  0  0  0
   -1.2778    9.5543   -2.1962 H   0  0  0  0  0  0  0  0  0  0  0  0
   -3.1439    9.5874   -2.2905 H   0  0  0  0  0  0  0  0  0  0  0  0
   -2.0080    5.7319   -1.9583 H   0  0  0  0  0  0  0  0  0  0  0  0
    6.0778    0.1640   -4.0707 H   0  0  0  0  0  0  0  0  0  0  0  0
    7.5702    0.9019   -3.5402 H   0  0  0  0  0  0  0  0  0  0  0  0
    7.3064    0.5876   -5.2387 H   0  0  0  0  0  0  0  0  0  0  0  0
   12.5326   -1.2123   -3.2625 H   0  0  0  0  0  0  0  0  0  0  0  0
   11.2453   -1.9060   -4.2188 H   0  0  0  0  0  0  0  0  0  0  0  0
   11.0765   -1.7839   -2.4839 H   0  0  0  0  0  0  0  0  0  0  0  0
   13.5183    3.1297   -8.3287 H   0  0  0  0  0  0  0  0  0  0  0  0
   12.0250    4.0347   -8.2642 H   0  0  0  0  0  0  0  0  0  0  0  0
   12.0259    2.3918   -8.8591 H   0  0  0  0  0  0  0  0  0  0  0  0
    4.7520    4.6061   -5.3693 H   0  0  0  0  0  0  0  0  0  0  0  0
    4.7390    4.9124   -3.6491 H   0  0  0  0  0  0  0  0  0  0  0  0
    2.6479    3.6785   -5.1370 H   0  0  0  0  0  0  0  0  0  0  0  0
    4.7047    1.3196    0.1357 H   0  0  0  0  0  0  0  0  0  0  0  0
    6.5247   -1.7926    2.5287 H   0  0  0  0  0  0  0  0  0  0  0  0
    5.6919    1.9880    1.3980 H   0  0  0  0  0  0  0  0  0  0  0  0
  1  2  1  0  0  0  0
  1 73  1  0  0  0  0
  1 74  1  0  0  0  0
  1 75  1  0  0  0  0
  2  3  1  0  0  0  0
  2  7  1  0  0  0  0
  2 76  1  6  0  0  0
  3  4  1  0  0  0  0
  3 72  1  0  0  0  0
  3 77  1  1  0  0  0
  4  5  1  0  0  0  0
  4 71  1  0  0  0  0
  4 78  1  6  0  0  0
  5  6  1  0  0  0  0
  5 70  1  0  0  0  0
  5 79  1  1  0  0  0
  6  7  1  0  0  0  0
  6  8  1  0  0  0  0
  6 80  1  1  0  0  0
  8  9  1  0  0  0  0
  9 10  1  0  0  0  0
  9 14  1  0  0  0  0
  9 81  1  1  0  0  0
 10 11  1  0  0  0  0
 10 68  1  0  0  0  0
 10 82  1  6  0  0  0
 11 12  1  0  0  0  0
 12 13  1  0  0  0  0
 12 27  1  0  0  0  0
 12 83  1  6  0  0  0
 13 14  1  0  0  0  0
 13 16  1  0  0  0  0
 13 84  1  6  0  0  0
 14 15  1  0  0  0  0
 14 85  1  6  0  0  0
 15 86  1  0  0  0  0
 16 17  1  0  0  0  0
 17 18  1  0  0  0  0
 17 22  1  0  0  0  0
 17 87  1  6  0  0  0
 18 19  1  0  0  0  0
 18 26  1  0  0  0  0
 18 88  1  1  0  0  0
 19 20  1  0  0  0  0
 19 25  1  0  0  0  0
 19 89  1  1  0  0  0
 20 21  1  0  0  0  0
 20 24  1  0  0  0  0
 20 90  1  1  0  0  0
 21 22  1  0  0  0  0
 21 23  1  0  0  0  0
 21 91  1  1  0  0  0
 23 92  1  0  0  0  0
 23 93  1  0  0  0  0
 23 94  1  0  0  0  0
 24 95  1  0  0  0  0
 25 96  1  0  0  0  0
 26 97  1  0  0  0  0
 27 28  1  0  0  0  0
 28 29  1  0  0  0  0
 28 41  1  0  0  0  0
 28 98  1  6  0  0  0
 29 30  1  0  0  0  0
 29 99  1  0  0  0  0
 29100  1  0  0  0  0
 30 31  1  0  0  0  0
 30101  1  0  0  0  0
 30102  1  0  0  0  0
 31 32  1  0  0  0  0
 31 40  1  0  0  0  0
 31 67  1  1  0  0  0
 32 33  1  0  0  0  0
 32 37  1  0  0  0  0
 32103  1  1  0  0  0
 33 34  1  0  0  0  0
 33104  1  0  0  0  0
 33105  1  0  0  0  0
 34 35  1  0  0  0  0
 34106  1  0  0  0  0
 34107  1  0  0  0  0
 35 36  1  0  0  0  0
 35 44  1  0  0  0  0
 35 66  1  1  0  0  0
 36 37  1  0  0  0  0
 36 42  1  0  0  0  0
 36108  1  6  0  0  0
 37 38  1  0  0  0  0
 37109  1  6  0  0  0
 38 39  1  0  0  0  0
 38110  1  0  0  0  0
 38111  1  0  0  0  0
 39 40  2  0  0  0  0
 39112  1  0  0  0  0
 40 41  1  0  0  0  0
 41113  1  0  0  0  0
 41114  1  0  0  0  0
 42 43  1  0  0  0  0
 42115  1  0  0  0  0
 42116  1  0  0  0  0
 43 44  1  0  0  0  0
 43 47  1  0  0  0  0
 43117  1  6  0  0  0
 44 45  1  0  0  0  0
 44118  1  6  0  0  0
 45 46  2  0  0  0  0
 45 65  1  0  0  0  0
 46 47  1  0  0  0  0
 46 48  1  0  0  0  0
 48 49  1  0  0  0  0
 48119  1  0  0  0  0
 48120  1  0  0  0  0
 49 50  1  0  0  0  0
 49121  1  0  0  0  0
 49122  1  0  0  0  0
 50 51  1  0  0  0  0
 50 52  1  0  0  0  0
 50123  1  1  0  0  0
 51124  1  0  0  0  0
 51125  1  0  0  0  0
 51126  1  0  0  0  0
 52 53  1  0  0  0  0
 52127  1  0  0  0  0
 52128  1  0  0  0  0
 53 54  1  0  0  0  0
 54 55  1  0  0  0  0
 54 59  1  0  0  0  0
 54129  1  6  0  0  0
 55 56  1  0  0  0  0
 55 64  1  0  0  0  0
 55130  1  1  0  0  0
 56 57  1  0  0  0  0
 56 63  1  0  0  0  0
 56131  1  6  0  0  0
 57 58  1  0  0  0  0
 57 62  1  0  0  0  0
 57132  1  1  0  0  0
 58 59  1  0  0  0  0
 58 60  1  0  0  0  0
 58133  1  6  0  0  0
 60 61  1  0  0  0  0
 60134  1  0  0  0  0
 60135  1  0  0  0  0
 61136  1  0  0  0  0
 62137  1  0  0  0  0
 63138  1  0  0  0  0
 64139  1  0  0  0  0
 65140  1  0  0  0  0
 65141  1  0  0  0  0
 65142  1  0  0  0  0
 66143  1  0  0  0  0
 66144  1  0  0  0  0
 66145  1  0  0  0  0
 67146  1  0  0  0  0
 67147  1  0  0  0  0
 67148  1  0  0  0  0
 68 69  1  0  0  0  0
 68149  1  0  0  0  0
 68150  1  0  0  0  0
 69151  1  0  0  0  0
 70152  1  0  0  0  0
 71153  1  0  0  0  0
 72154  1  0  0  0  0
M  END
$$$$
