
 OpenBabel03102508543D

157165  0  0  1  0  0  0  0  0999 V2000
    2.5531    1.0696    1.2099 C   0  0  0  0  0  0  0  0  0  0  0  0
    2.5511    0.0663    0.0681 C   0  0  1  0  0  0  0  0  0  0  0  0
    8.3539   -0.9609   -9.9538 C   0  0  1  0  0  0  0  0  0  0  0  0
    4.4497   -0.1395   -1.9420 C   0  0  2  0  0  0  0  0  0  0  0  0
    5.8240    0.2029   -2.4938 C   0  0  0  0  0  0  0  0  0  0  0  0
    5.6699    1.0128   -3.7708 C   0  0  2  0  0  0  0  0  0  0  0  0
    9.7282   -0.6185  -10.5056 C   0  0  2  0  0  0  0  0  0  0  0  0
   10.4980    0.1960   -9.4788 C   0  0  0  0  0  0  0  0  0  0  0  0
    9.7393    1.4782   -9.1772 C   0  0  0  0  0  0  0  0  0  0  0  0
   10.5091    2.2927   -8.1504 C   0  0  1  0  0  0  0  0  0  0  0  0
    7.0442    1.3551   -4.3226 C   0  0  1  0  0  0  0  0  0  0  0  0
    6.8901    2.1650   -5.5996 C   0  0  0  0  0  0  0  0  0  0  0  0
    8.2644    2.5073   -6.1514 C   0  0  0  0  0  0  0  0  0  0  0  0
    8.3761    3.2325   -7.2970 C   0  0  0  0  0  0  0  0  0  0  0  0
    9.7504    3.5749   -7.8488 C   0  0  2  0  0  0  0  0  0  0  0  0
   10.5202    4.3895   -6.8220 C   0  0  0  0  0  0  0  0  0  0  0  0
   10.6743    3.5796   -5.5450 C   0  0  0  0  0  0  0  0  0  0  0  0
   11.4440    4.3941   -4.5182 C   0  0  1  0  0  0  0  0  0  0  0  0
    7.1266    3.7005   -8.0251 C   0  0  0  0  0  0  0  0  0  0  0  0
   11.8604    4.4968   -3.1645 O   0  0  0  0  0  0  0  0  0  0  0  0
   12.6473    3.3668   -2.8175 C   0  0  1  0  0  0  0  0  0  0  0  0
   17.1346    1.0084   -2.5584 C   0  0  1  0  0  0  0  0  0  0  0  0
   15.9155    1.0742   -1.6528 C   0  0  2  0  0  0  0  0  0  0  0  0
   15.0732    2.2838   -2.0243 C   0  0  1  0  0  0  0  0  0  0  0  0
   13.8542    2.3496   -1.1187 C   0  0  2  0  0  0  0  0  0  0  0  0
   13.0673    3.4796   -1.4657 O   0  0  0  0  0  0  0  0  0  0  0  0
   14.3038    2.4704    0.3282 C   0  0  0  0  0  0  0  0  0  0  0  0
   15.0907    1.3404    0.6752 O   0  0  0  0  0  0  0  0  0  0  0  0
   15.8452    3.4650   -1.8655 O   0  0  0  0  0  0  0  0  0  0  0  0
   16.4931    2.6381   -2.8209 C   0  0  1  0  0  0  0  0  0  0  0  0
   17.3822    1.2949   -7.6345 C   0  0  1  0  0  0  0  0  0  0  0  0
   18.2394    1.3903   -6.3829 C   0  0  1  0  0  0  0  0  0  0  0  0
   17.5459    2.2755   -5.3601 C   0  0  2  0  0  0  0  0  0  0  0  0
   18.4030    2.3709   -4.1085 C   0  0  1  0  0  0  0  0  0  0  0  0
   17.7551    3.1978   -3.1531 O   0  0  0  0  0  0  0  0  0  0  0  0
   18.6028    0.9821   -3.5241 C   0  0  0  0  0  0  0  0  0  0  0  0
   16.2838    1.7157   -5.0280 O   0  0  0  0  0  0  0  0  0  0  0  0
   18.4260    0.0929   -5.8369 O   0  0  0  0  0  0  0  0  0  0  0  0
   16.1202    0.7351   -7.3023 O   0  0  0  0  0  0  0  0  0  0  0  0
   16.3356    1.1870   -0.3011 O   0  0  0  0  0  0  0  0  0  0  0  0
   16.7145    0.8956   -3.9101 O   0  0  0  0  0  0  0  0  0  0  0  0
   17.8534    0.8340   -4.7561 C   0  0  1  0  0  0  0  0  0  0  0  0
   21.4758   -1.8252   -7.1165 C   0  0  1  0  0  0  0  0  0  0  0  0
   20.6335   -0.6157   -7.4879 C   0  0  1  0  0  0  0  0  0  0  0  0
   19.4145   -0.5498   -6.5824 C   0  0  2  0  0  0  0  0  0  0  0  0
   18.5722    0.6597   -6.9538 C   0  0  1  0  0  0  0  0  0  0  0  0
   17.4333    0.7213   -6.1079 O   0  0  0  0  0  0  0  0  0  0  0  0
   19.3985    1.9241   -6.7838 C   0  0  0  0  0  0  0  0  0  0  0  0
   19.8345   -0.4370   -5.2306 O   0  0  0  0  0  0  0  0  0  0  0  0
   21.4055    0.5655   -7.3291 O   0  0  0  0  0  0  0  0  0  0  0  0
   21.8959   -1.7124   -5.7647 O   0  0  0  0  0  0  0  0  0  0  0  0
    9.5963    4.3848   -9.1258 C   0  0  0  0  0  0  0  0  0  0  0  0
   10.3680   -0.9826  -11.8355 C   0  0  0  0  0  0  0  0  0  0  0  0
    4.5937   -0.8961   -0.7490 O   0  0  0  0  0  0  0  0  0  0  0  0
    3.3098   -1.2159   -0.2335 C   0  0  2  0  0  0  0  0  0  0  0  0
    2.1212   -1.7377   -1.0243 C   0  0  0  0  0  0  0  0  0  0  0  0
    0.8406   -1.0712   -0.5490 C   0  0  0  0  0  0  0  0  0  0  0  0
   -0.3353   -1.6017   -1.3529 C   0  0  1  0  0  0  0  0  0  0  0  0
   -0.4445   -3.1053   -1.1589 C   0  0  0  0  0  0  0  0  0  0  0  0
   -1.6160   -0.9351   -0.8775 C   0  0  0  0  0  0  0  0  0  0  0  0
   -2.7145   -1.4307   -1.6286 O   0  0  0  0  0  0  0  0  0  0  0  0
   -3.9109   -0.8081   -1.1845 C   0  0  1  0  0  0  0  0  0  0  0  0
   -7.2681    2.9928   -1.4040 C   0  0  1  0  0  0  0  0  0  0  0  0
   -7.3773    1.4892   -1.2100 C   0  0  2  0  0  0  0  0  0  0  0  0
   -6.0966    0.8226   -1.6854 C   0  0  1  0  0  0  0  0  0  0  0  0
   -6.2058   -0.6810   -1.4914 C   0  0  2  0  0  0  0  0  0  0  0  0
   -5.0094   -1.3037   -1.9355 O   0  0  0  0  0  0  0  0  0  0  0  0
   -7.3817   -1.2115   -2.2953 C   0  0  0  0  0  0  0  0  0  0  0  0
   -8.5781   -0.5888   -1.8512 O   0  0  0  0  0  0  0  0  0  0  0  0
   -5.8967    1.1091   -3.0618 O   0  0  0  0  0  0  0  0  0  0  0  0
   -8.4758    0.9936   -1.9611 O   0  0  0  0  0  0  0  0  0  0  0  0
   -6.1696    3.4884   -0.6529 O   0  0  0  0  0  0  0  0  0  0  0  0
    3.2257   -2.5179    0.3269 O   0  0  0  0  0  0  0  0  0  0  0  0
    1.8421    1.8429    1.0064 H   0  0  0  0  0  0  0  0  0  0  0  0
    3.5286    1.4984    1.3063 H   0  0  0  0  0  0  0  0  0  0  0  0
    2.2898    0.5738    2.1208 H   0  0  0  0  0  0  0  0  0  0  0  0
    1.5618    0.3353    0.3743 H   0  0  0  0  0  0  0  0  0  0  0  0
    8.3769   -1.2596  -10.9810 H   0  0  0  0  0  0  0  0  0  0  0  0
    3.4566    0.1357   -1.6540 H   0  0  0  0  0  0  0  0  0  0  0  0
    6.3581   -0.6997   -2.7061 H   0  0  0  0  0  0  0  0  0  0  0  0
    6.3659    0.7763   -1.7710 H   0  0  0  0  0  0  0  0  0  0  0  0
    4.6813    1.3469   -3.5342 H   0  0  0  0  0  0  0  0  0  0  0  0
   11.4654    0.4370   -9.8673 H   0  0  0  0  0  0  0  0  0  0  0  0
   10.6065   -0.3741   -8.5799 H   0  0  0  0  0  0  0  0  0  0  0  0
    8.7719    1.2372   -8.7888 H   0  0  0  0  0  0  0  0  0  0  0  0
    9.6308    2.0483  -10.0762 H   0  0  0  0  0  0  0  0  0  0  0  0
   11.5639    2.2111   -8.3102 H   0  0  0  0  0  0  0  0  0  0  0  0
    7.3187    0.9685   -3.3634 H   0  0  0  0  0  0  0  0  0  0  0  0
    6.3561    3.0676   -5.3873 H   0  0  0  0  0  0  0  0  0  0  0  0
    6.3482    1.5916   -6.3224 H   0  0  0  0  0  0  0  0  0  0  0  0
    9.1128    2.1896   -5.6571 H   0  0  0  0  0  0  0  0  0  0  0  0
    9.9861    5.2920   -6.6097 H   0  0  0  0  0  0  0  0  0  0  0  0
   11.4876    4.6305   -7.2104 H   0  0  0  0  0  0  0  0  0  0  0  0
   11.2083    2.6770   -5.7573 H   0  0  0  0  0  0  0  0  0  0  0  0
    9.7068    3.3386   -5.1565 H   0  0  0  0  0  0  0  0  0  0  0  0
   12.3230    4.9191   -4.2073 H   0  0  0  0  0  0  0  0  0  0  0  0
    7.1142    4.0433   -9.0387 H   0  0  0  0  0  0  0  0  0  0  0  0
    6.0658    3.6091   -8.1308 H   0  0  0  0  0  0  0  0  0  0  0  0
   12.0190    2.9546   -3.5792 H   0  0  0  0  0  0  0  0  0  0  0  0
   18.1599    0.7866   -2.3477 H   0  0  0  0  0  0  0  0  0  0  0  0
   15.3338    0.1842   -1.7725 H   0  0  0  0  0  0  0  0  0  0  0  0
   14.7567    2.1988   -3.0429 H   0  0  0  0  0  0  0  0  0  0  0  0
   13.2725    1.4596   -1.2384 H   0  0  0  0  0  0  0  0  0  0  0  0
   13.4456    2.5167    0.9657 H   0  0  0  0  0  0  0  0  0  0  0  0
   14.8855    3.3604    0.4479 H   0  0  0  0  0  0  0  0  0  0  0  0
   14.5633    0.5335    0.5667 H   0  0  0  0  0  0  0  0  0  0  0  0
   15.8829    1.9232   -2.3094 H   0  0  0  0  0  0  0  0  0  0  0  0
   17.6409    1.3294   -8.6722 H   0  0  0  0  0  0  0  0  0  0  0  0
   19.1904    1.8121   -6.6331 H   0  0  0  0  0  0  0  0  0  0  0  0
   17.4052    3.2531   -5.7716 H   0  0  0  0  0  0  0  0  0  0  0  0
   19.3540    2.7927   -4.3588 H   0  0  0  0  0  0  0  0  0  0  0  0
   17.6518    0.5603   -3.2738 H   0  0  0  0  0  0  0  0  0  0  0  0
   19.2062    1.0493   -2.6430 H   0  0  0  0  0  0  0  0  0  0  0  0
   19.0910    0.3590   -4.2440 H   0  0  0  0  0  0  0  0  0  0  0  0
   16.4113    0.8294   -4.6550 H   0  0  0  0  0  0  0  0  0  0  0  0
   17.5639   -0.2895   -5.6100 H   0  0  0  0  0  0  0  0  0  0  0  0
   15.9993    0.7584   -6.3402 H   0  0  0  0  0  0  0  0  0  0  0  0
   16.8629    1.9939   -0.1926 H   0  0  0  0  0  0  0  0  0  0  0  0
   18.2391    1.3963   -3.9315 H   0  0  0  0  0  0  0  0  0  0  0  0
   21.9787   -2.5491   -7.7232 H   0  0  0  0  0  0  0  0  0  0  0  0
   20.3170   -0.7007   -8.5065 H   0  0  0  0  0  0  0  0  0  0  0  0
   18.8328   -1.4399   -6.7021 H   0  0  0  0  0  0  0  0  0  0  0  0
   18.2557    0.5747   -7.9724 H   0  0  0  0  0  0  0  0  0  0  0  0
   19.7150    2.0091   -5.7653 H   0  0  0  0  0  0  0  0  0  0  0  0
   18.8056    2.7755   -7.0453 H   0  0  0  0  0  0  0  0  0  0  0  0
   20.2567    1.8777   -7.4213 H   0  0  0  0  0  0  0  0  0  0  0  0
   20.3619    0.3699   -5.1222 H   0  0  0  0  0  0  0  0  0  0  0  0
   21.6924    0.6425   -6.4058 H   0  0  0  0  0  0  0  0  0  0  0  0
   21.3710   -1.0293   -5.3190 H   0  0  0  0  0  0  0  0  0  0  0  0
    9.0544    3.8113   -9.8486 H   0  0  0  0  0  0  0  0  0  0  0  0
   10.5637    4.6258   -9.5142 H   0  0  0  0  0  0  0  0  0  0  0  0
    9.0623    5.2873   -8.9135 H   0  0  0  0  0  0  0  0  0  0  0  0
    9.6765   -1.5530  -12.4197 H   0  0  0  0  0  0  0  0  0  0  0  0
   11.2500   -1.5623  -11.6602 H   0  0  0  0  0  0  0  0  0  0  0  0
   10.6278   -0.0885  -12.3629 H   0  0  0  0  0  0  0  0  0  0  0  0
    2.2664   -1.5241   -2.0627 H   0  0  0  0  0  0  0  0  0  0  0  0
    2.0404   -2.7944   -0.8764 H   0  0  0  0  0  0  0  0  0  0  0  0
    0.9174   -0.0127   -0.6855 H   0  0  0  0  0  0  0  0  0  0  0  0
    0.6899   -1.2870    0.4882 H   0  0  0  0  0  0  0  0  0  0  0  0
   -0.1846   -1.3859   -2.3900 H   0  0  0  0  0  0  0  0  0  0  0  0
   -0.5952   -3.3211   -0.1218 H   0  0  0  0  0  0  0  0  0  0  0  0
    0.4570   -3.5745   -1.4936 H   0  0  0  0  0  0  0  0  0  0  0  0
   -1.2722   -3.4787   -1.7248 H   0  0  0  0  0  0  0  0  0  0  0  0
   -1.5391    0.1233   -1.0141 H   0  0  0  0  0  0  0  0  0  0  0  0
   -1.7666   -1.1510    0.1596 H   0  0  0  0  0  0  0  0  0  0  0  0
   -3.3160   -0.7692   -0.2959 H   0  0  0  0  0  0  0  0  0  0  0  0
   -7.9733    3.7114   -1.7660 H   0  0  0  0  0  0  0  0  0  0  0  0
   -7.5280    1.2734   -0.1729 H   0  0  0  0  0  0  0  0  0  0  0  0
   -5.2689    1.1961   -1.1194 H   0  0  0  0  0  0  0  0  0  0  0  0
   -6.3565   -0.8968   -0.4543 H   0  0  0  0  0  0  0  0  0  0  0  0
   -7.4586   -2.2699   -2.1588 H   0  0  0  0  0  0  0  0  0  0  0  0
   -7.2310   -0.9957   -3.3325 H   0  0  0  0  0  0  0  0  0  0  0  0
   -8.7147   -0.7844   -0.9110 H   0  0  0  0  0  0  0  0  0  0  0  0
   -6.6471    0.7705   -3.5748 H   0  0  0  0  0  0  0  0  0  0  0  0
   -8.3392    1.1892   -2.9013 H   0  0  0  0  0  0  0  0  0  0  0  0
   -5.6037    2.7489   -0.3813 H   0  0  0  0  0  0  0  0  0  0  0  0
    3.9219   -2.6287    0.9932 H   0  0  0  0  0  0  0  0  0  0  0  0
  1 74  1  0  0  0  0
  1 75  1  0  0  0  0
  1 76  1  0  0  0  0
  2  3  1  0  0  0  0
  2 55  1  0  0  0  0
  2  1  1  0  0  0  0
  2 77  1  6  0  0  0
  3  4  1  0  0  0  0
  3  7  1  0  0  0  0
  3 78  1  1  0  0  0
  4  5  1  0  0  0  0
  4 54  1  0  0  0  0
  4 79  1  1  0  0  0
  5  6  1  0  0  0  0
  5 80  1  0  0  0  0
  5 81  1  0  0  0  0
  6  7  1  0  0  0  0
  6 11  1  0  0  0  0
  6 82  1  6  0  0  0
  7  8  1  0  0  0  0
  7 53  1  1  0  0  0
  8  9  1  0  0  0  0
  8 83  1  0  0  0  0
  8 84  1  0  0  0  0
  9 10  1  0  0  0  0
  9 85  1  0  0  0  0
  9 86  1  0  0  0  0
 10 11  1  0  0  0  0
 10 15  1  0  0  0  0
 10 87  1  6  0  0  0
 11 12  1  0  0  0  0
 11 88  1  1  0  0  0
 12 13  1  0  0  0  0
 12 89  1  0  0  0  0
 12 90  1  0  0  0  0
 13 14  2  0  0  0  0
 13 91  1  0  0  0  0
 14 15  1  0  0  0  0
 14 19  1  0  0  0  0
 15 16  1  0  0  0  0
 15 52  1  1  0  0  0
 16 17  1  0  0  0  0
 16 92  1  0  0  0  0
 16 93  1  0  0  0  0
 17 18  1  0  0  0  0
 17 94  1  0  0  0  0
 17 95  1  0  0  0  0
 18 19  1  0  0  0  0
 18 20  1  0  0  0  0
 18 96  1  6  0  0  0
 19 97  1  0  0  0  0
 19 98  1  0  0  0  0
 20 21  1  0  0  0  0
 21 22  1  0  0  0  0
 21 26  1  0  0  0  0
 21 99  1  1  0  0  0
 22 23  1  0  0  0  0
 22 41  1  0  0  0  0
 22100  1  1  0  0  0
 23 24  1  0  0  0  0
 23 40  1  0  0  0  0
 23101  1  6  0  0  0
 24 25  1  0  0  0  0
 24 29  1  0  0  0  0
 24102  1  6  0  0  0
 25 26  1  0  0  0  0
 25 27  1  0  0  0  0
 25103  1  6  0  0  0
 27 28  1  0  0  0  0
 27104  1  0  0  0  0
 27105  1  0  0  0  0
 28106  1  0  0  0  0
 29 30  1  0  0  0  0
 30 31  1  0  0  0  0
 30 35  1  0  0  0  0
 30107  1  1  0  0  0
 31 32  1  0  0  0  0
 31 39  1  0  0  0  0
 31108  1  6  0  0  0
 32 33  1  0  0  0  0
 32 38  1  0  0  0  0
 32109  1  6  0  0  0
 33 34  1  0  0  0  0
 33 37  1  0  0  0  0
 33110  1  6  0  0  0
 34 35  1  0  0  0  0
 34 36  1  0  0  0  0
 34111  1  6  0  0  0
 36112  1  0  0  0  0
 36113  1  0  0  0  0
 36114  1  0  0  0  0
 37115  1  0  0  0  0
 38116  1  0  0  0  0
 39117  1  0  0  0  0
 40118  1  0  0  0  0
 41 42  1  0  0  0  0
 42 43  1  0  0  0  0
 42 47  1  0  0  0  0
 42119  1  1  0  0  0
 43 44  1  0  0  0  0
 43 51  1  0  0  0  0
 43120  1  6  0  0  0
 44 45  1  0  0  0  0
 44 50  1  0  0  0  0
 44121  1  6  0  0  0
 45 46  1  0  0  0  0
 45 49  1  0  0  0  0
 45122  1  6  0  0  0
 46 47  1  0  0  0  0
 46 48  1  0  0  0  0
 46123  1  6  0  0  0
 48124  1  0  0  0  0
 48125  1  0  0  0  0
 48126  1  0  0  0  0
 49127  1  0  0  0  0
 50128  1  0  0  0  0
 51129  1  0  0  0  0
 52130  1  0  0  0  0
 52131  1  0  0  0  0
 52132  1  0  0  0  0
 53133  1  0  0  0  0
 53134  1  0  0  0  0
 53135  1  0  0  0  0
 54 55  1  0  0  0  0
 55 73  1  1  0  0  0
 55 56  1  0  0  0  0
 56 57  1  0  0  0  0
 56136  1  0  0  0  0
 56137  1  0  0  0  0
 57 58  1  0  0  0  0
 57138  1  0  0  0  0
 57139  1  0  0  0  0
 58 59  1  0  0  0  0
 58 60  1  0  0  0  0
 58140  1  6  0  0  0
 59141  1  0  0  0  0
 59142  1  0  0  0  0
 59143  1  0  0  0  0
 60 61  1  0  0  0  0
 60144  1  0  0  0  0
 60145  1  0  0  0  0
 61 62  1  0  0  0  0
 62 63  1  0  0  0  0
 62 67  1  0  0  0  0
 62146  1  1  0  0  0
 63 64  1  0  0  0  0
 63 72  1  0  0  0  0
 63147  1  6  0  0  0
 64 65  1  0  0  0  0
 64 71  1  0  0  0  0
 64148  1  1  0  0  0
 65 66  1  0  0  0  0
 65 70  1  0  0  0  0
 65149  1  1  0  0  0
 66 67  1  0  0  0  0
 66 68  1  0  0  0  0
 66150  1  1  0  0  0
 68 69  1  0  0  0  0
 68151  1  0  0  0  0
 68152  1  0  0  0  0
 69153  1  0  0  0  0
 70154  1  0  0  0  0
 71155  1  0  0  0  0
 72156  1  0  0  0  0
 73157  1  0  0  0  0
M  END
$$$$
