
 OpenBabel03102508543D

154162  0  0  1  0  0  0  0  0999 V2000
    1.0120    0.0531    0.0839 C   0  0  0  0  0  0  0  0  0  0  0  0
    2.5320    0.0531    0.0839 C   0  0  1  0  0  0  0  0  0  0  0  0
    6.9587    1.8722    1.7753 C   0  0  1  0  0  0  0  0  0  0  0  0
    6.4520    0.4885    1.4022 C   0  0  2  0  0  0  0  0  0  0  0  0
    4.9320    0.4885    1.4022 C   0  0  2  0  0  0  0  0  0  0  0  0
    4.4253   -0.8951    1.0290 C   0  0  1  0  0  0  0  0  0  0  0  0
    3.0053   -0.8951    1.0290 O   0  0  0  0  0  0  0  0  0  0  0  0
    4.8987   -1.2394   -0.2648 O   0  0  0  0  0  0  0  0  0  0  0  0
    6.3185   -1.2340   -0.2441 C   0  0  2  0  0  0  0  0  0  0  0  0
    4.9951    0.0926   -4.9616 C   0  0  2  0  0  0  0  0  0  0  0  0
    6.4149    0.0981   -4.9409 O   0  0  0  0  0  0  0  0  0  0  0  0
    6.8785   -0.8693   -4.0106 C   0  0  2  0  0  0  0  0  0  0  0  0
    6.3504   -0.5338   -2.6253 C   0  0  1  0  0  0  0  0  0  0  0  0
    6.8466   -1.5694   -1.6294 C   0  0  1  0  0  0  0  0  0  0  0  0
    8.2665   -1.5639   -1.6088 O   0  0  0  0  0  0  0  0  0  0  0  0
    6.8132    0.7524   -2.2409 O   0  0  0  0  0  0  0  0  0  0  0  0
    6.3954    1.7873   -3.1189 C   0  0  1  0  0  0  0  0  0  0  0  0
    2.9995    5.2799   -4.5453 C   0  0  1  0  0  0  0  0  0  0  0  0
    4.5182    5.2271   -4.5110 C   0  0  1  0  0  0  0  0  0  0  0  0
    4.9655    4.1193   -3.5712 C   0  0  2  0  0  0  0  0  0  0  0  0
    6.4841    4.0664   -3.5369 C   0  0  1  0  0  0  0  0  0  0  0  0
    6.9020    3.0315   -2.6589 O   0  0  0  0  0  0  0  0  0  0  0  0
    7.0132    3.7895   -4.9346 C   0  0  0  0  0  0  0  0  0  0  0  0
    4.4588    2.8750   -4.0312 O   0  0  0  0  0  0  0  0  0  0  0  0
    5.0124    4.9683   -5.8168 O   0  0  0  0  0  0  0  0  0  0  0  0
    2.4928    4.0357   -5.0053 O   0  0  0  0  0  0  0  0  0  0  0  0
    8.2984   -0.8638   -3.9899 O   0  0  0  0  0  0  0  0  0  0  0  0
    8.7918   -1.1771   -5.2841 C   0  0  1  0  0  0  0  0  0  0  0  0
   12.3373    0.8461   -7.4799 C   0  0  0  0  0  0  0  0  0  0  0  0
   12.9576   -0.2136   -6.5839 C   0  0  0  0  0  0  0  0  0  0  0  0
   12.3382   -1.5663   -6.8954 C   0  0  2  0  0  0  0  0  0  0  0  0
   12.9584   -2.6259   -5.9994 C   0  0  1  0  0  0  0  0  0  0  0  0
    8.8237   -0.7419   -3.4876 C   0  0  0  0  0  0  0  0  0  0  0  0
    9.4439   -1.8016   -2.5916 C   0  0  0  0  0  0  0  0  0  0  0  0
   10.9424   -1.8612   -2.8398 C   0  0  1  0  0  0  0  0  0  0  0  0
   11.2012   -2.2138   -4.2955 C   0  0  2  0  0  0  0  0  0  0  0  0
   12.6996   -2.2734   -4.5437 C   0  0  2  0  0  0  0  0  0  0  0  0
   13.3198   -3.3331   -3.6478 C   0  0  0  0  0  0  0  0  0  0  0  0
    9.9714   -1.7535   -7.6649 C   0  0  0  0  0  0  0  0  0  0  0  0
   10.8398   -1.5066   -6.6472 C   0  0  0  0  0  0  0  0  0  0  0  0
   10.3116   -1.1712   -5.2620 C   0  0  0  0  0  0  0  0  0  0  0  0
   10.5810   -1.1541   -5.1915 C   0  0  0  0  0  0  0  0  0  0  0  0
    9.0825   -1.0945   -4.9433 C   0  0  1  0  0  0  0  0  0  0  0  0
    4.8241   -0.3169   -4.8247 C   0  0  2  0  0  0  0  0  0  0  0  0
    6.3206   -0.5770   -4.8791 C   0  0  0  0  0  0  0  0  0  0  0  0
    7.1050    0.1386   -5.7296 C   0  0  0  0  0  0  0  0  0  0  0  0
    8.5031   -0.1045   -5.7803 O   0  0  0  0  0  0  0  0  0  0  0  0
    6.4848    1.1983   -6.6256 C   0  0  0  0  0  0  0  0  0  0  0  0
    4.9864    1.2579   -6.3774 C   0  0  0  0  0  0  0  0  0  0  0  0
    4.3662    2.3176   -7.2733 C   0  0  1  0  0  0  0  0  0  0  0  0
    4.6250    1.9650   -8.7291 C   0  0  0  0  0  0  0  0  0  0  0  0
    2.8677    2.3772   -7.0251 C   0  0  0  0  0  0  0  0  0  0  0  0
    2.2883    3.3671   -7.8622 O   0  0  0  0  0  0  0  0  0  0  0  0
    0.8885    3.4228   -7.6303 C   0  0  1  0  0  0  0  0  0  0  0  0
   -3.1068    5.2333   -5.0758 C   0  0  1  0  0  0  0  0  0  0  0  0
   -2.8480    4.8807   -6.5316 C   0  0  2  0  0  0  0  0  0  0  0  0
   -1.3496    4.8211   -6.7798 C   0  0  1  0  0  0  0  0  0  0  0  0
   -1.0908    4.4685   -8.2355 C   0  0  2  0  0  0  0  0  0  0  0  0
    0.3091    4.4128   -8.4673 O   0  0  0  0  0  0  0  0  0  0  0  0
   -1.7110    5.5282   -9.1314 C   0  0  0  0  0  0  0  0  0  0  0  0
   -3.1108    5.5839   -8.8996 O   0  0  0  0  0  0  0  0  0  0  0  0
   -0.7709    6.0847   -6.4887 O   0  0  0  0  0  0  0  0  0  0  0  0
   -3.4274    5.8707   -7.3686 O   0  0  0  0  0  0  0  0  0  0  0  0
   -2.5274    4.2433   -4.2388 O   0  0  0  0  0  0  0  0  0  0  0  0
    6.9409   -1.6367   -3.9831 C   0  0  0  0  0  0  0  0  0  0  0  0
   11.5626   -2.9209   -1.9439 C   0  0  0  0  0  0  0  0  0  0  0  0
   12.5970   -1.9188   -8.3511 C   0  0  0  0  0  0  0  0  0  0  0  0
    4.4988    1.1282   -5.9575 C   0  0  0  0  0  0  0  0  0  0  0  0
    3.0790    1.1227   -5.9781 O   0  0  0  0  0  0  0  0  0  0  0  0
    4.4587    1.4368    0.4570 O   0  0  0  0  0  0  0  0  0  0  0  0
    6.9253   -0.4597    2.3473 O   0  0  0  0  0  0  0  0  0  0  0  0
    6.4853    2.8204    0.8302 O   0  0  0  0  0  0  0  0  0  0  0  0
    0.6553    0.7677   -0.6283 H   0  0  0  0  0  0  0  0  0  0  0  0
    0.6553    0.3126    1.0587 H   0  0  0  0  0  0  0  0  0  0  0  0
    0.6553   -0.9209   -0.1789 H   0  0  0  0  0  0  0  0  0  0  0  0
    2.3257    0.3638   -0.9191 H   0  0  0  0  0  0  0  0  0  0  0  0
    7.7548    2.1830    2.4191 H   0  0  0  0  0  0  0  0  0  0  0  0
    6.8087    0.2290    0.4273 H   0  0  0  0  0  0  0  0  0  0  0  0
    4.5753    0.7480    2.3770 H   0  0  0  0  0  0  0  0  0  0  0  0
    4.7820   -1.6096    1.7411 H   0  0  0  0  0  0  0  0  0  0  0  0
    6.7909   -1.2530    0.7157 H   0  0  0  0  0  0  0  0  0  0  0  0
    4.0571   -0.3329   -5.2515 H   0  0  0  0  0  0  0  0  0  0  0  0
    6.5298   -1.8385   -4.3002 H   0  0  0  0  0  0  0  0  0  0  0  0
    5.2805   -0.5380   -2.6408 H   0  0  0  0  0  0  0  0  0  0  0  0
    6.4979   -2.5386   -1.9191 H   0  0  0  0  0  0  0  0  0  0  0  0
    8.5826   -0.6853   -1.3462 H   0  0  0  0  0  0  0  0  0  0  0  0
    6.4134    0.9484   -3.7828 H   0  0  0  0  0  0  0  0  0  0  0  0
    2.3210    6.1073   -4.5349 H   0  0  0  0  0  0  0  0  0  0  0  0
    4.8999    6.1646   -4.1644 H   0  0  0  0  0  0  0  0  0  0  0  0
    4.5930    4.3143   -2.5873 H   0  0  0  0  0  0  0  0  0  0  0  0
    6.8659    5.0040   -3.1903 H   0  0  0  0  0  0  0  0  0  0  0  0
    6.6315    2.8519   -5.2812 H   0  0  0  0  0  0  0  0  0  0  0  0
    8.0823    3.7523   -4.9104 H   0  0  0  0  0  0  0  0  0  0  0  0
    6.6984    4.5693   -5.5962 H   0  0  0  0  0  0  0  0  0  0  0  0
    4.7965    2.6983   -4.9232 H   0  0  0  0  0  0  0  0  0  0  0  0
    4.6664    4.1184   -6.1310 H   0  0  0  0  0  0  0  0  0  0  0  0
    3.1949    3.3674   -4.9690 H   0  0  0  0  0  0  0  0  0  0  0  0
    7.8602   -1.6116   -5.5813 H   0  0  0  0  0  0  0  0  0  0  0  0
   12.5418    1.8700   -7.2460 H   0  0  0  0  0  0  0  0  0  0  0  0
   12.4733    0.9911   -8.5312 H   0  0  0  0  0  0  0  0  0  0  0  0
   12.7754    0.0346   -5.5591 H   0  0  0  0  0  0  0  0  0  0  0  0
   14.0124   -0.2555   -6.7586 H   0  0  0  0  0  0  0  0  0  0  0  0
   13.6690   -3.2938   -6.4399 H   0  0  0  0  0  0  0  0  0  0  0  0
    7.8574   -0.9439   -3.9002 H   0  0  0  0  0  0  0  0  0  0  0  0
    8.5786    0.2745   -3.2598 H   0  0  0  0  0  0  0  0  0  0  0  0
    9.0079   -2.7538   -2.8109 H   0  0  0  0  0  0  0  0  0  0  0  0
    9.2617   -1.5534   -1.5669 H   0  0  0  0  0  0  0  0  0  0  0  0
   10.7652   -3.1660   -4.5148 H   0  0  0  0  0  0  0  0  0  0  0  0
   13.1356   -1.3212   -4.3244 H   0  0  0  0  0  0  0  0  0  0  0  0
   13.0022   -3.5319   -2.6455 H   0  0  0  0  0  0  0  0  0  0  0  0
   14.2066   -3.8718   -3.3866 H   0  0  0  0  0  0  0  0  0  0  0  0
    9.3070   -1.6963   -8.4525 H   0  0  0  0  0  0  0  0  0  0  0  0
   10.6604   -0.2020   -4.9723 H   0  0  0  0  0  0  0  0  0  0  0  0
   10.6610   -1.9002   -4.5609 H   0  0  0  0  0  0  0  0  0  0  0  0
   10.7631   -1.4023   -6.2163 H   0  0  0  0  0  0  0  0  0  0  0  0
   11.0170   -0.2018   -4.9722 H   0  0  0  0  0  0  0  0  0  0  0  0
    9.4504   -1.8540   -4.2855 H   0  0  0  0  0  0  0  0  0  0  0  0
    3.7786   -0.1058   -4.9104 H   0  0  0  0  0  0  0  0  0  0  0  0
    6.6670    0.9501   -7.6503 H   0  0  0  0  0  0  0  0  0  0  0  0
    6.9208    2.1505   -6.4063 H   0  0  0  0  0  0  0  0  0  0  0  0
    4.8042    1.5061   -5.3526 H   0  0  0  0  0  0  0  0  0  0  0  0
    4.5504    0.3057   -6.5967 H   0  0  0  0  0  0  0  0  0  0  0  0
    4.8022    3.2698   -7.0540 H   0  0  0  0  0  0  0  0  0  0  0  0
    4.1890    1.0128   -8.9484 H   0  0  0  0  0  0  0  0  0  0  0  0
    5.6798    1.9230   -8.9038 H   0  0  0  0  0  0  0  0  0  0  0  0
    4.1884    2.7109   -9.3598 H   0  0  0  0  0  0  0  0  0  0  0  0
    2.6855    2.6254   -6.0004 H   0  0  0  0  0  0  0  0  0  0  0  0
    2.4317    1.4250   -7.2445 H   0  0  0  0  0  0  0  0  0  0  0  0
    1.0987    2.4040   -7.3798 H   0  0  0  0  0  0  0  0  0  0  0  0
   -3.8132    5.8985   -4.6249 H   0  0  0  0  0  0  0  0  0  0  0  0
   -3.2840    3.9285   -6.7509 H   0  0  0  0  0  0  0  0  0  0  0  0
   -0.9130    4.0751   -6.1490 H   0  0  0  0  0  0  0  0  0  0  0  0
   -1.5268    3.5163   -8.4548 H   0  0  0  0  0  0  0  0  0  0  0  0
   -1.5288    5.2800  -10.1562 H   0  0  0  0  0  0  0  0  0  0  0  0
   -1.2750    6.4804   -8.9121 H   0  0  0  0  0  0  0  0  0  0  0  0
   -3.5061    4.7207   -9.0984 H   0  0  0  0  0  0  0  0  0  0  0  0
   -1.1667    6.7610   -7.0605 H   0  0  0  0  0  0  0  0  0  0  0  0
   -3.0321    6.7339   -7.1698 H   0  0  0  0  0  0  0  0  0  0  0  0
   -1.9080    3.7048   -4.7559 H   0  0  0  0  0  0  0  0  0  0  0  0
    6.1771   -2.0921   -3.3879 H   0  0  0  0  0  0  0  0  0  0  0  0
    7.6679   -1.1819   -3.3433 H   0  0  0  0  0  0  0  0  0  0  0  0
    7.4141   -2.3823   -4.5874 H   0  0  0  0  0  0  0  0  0  0  0  0
   12.6233   -2.7839   -1.9110 H   0  0  0  0  0  0  0  0  0  0  0  0
   11.3403   -3.8922   -2.3337 H   0  0  0  0  0  0  0  0  0  0  0  0
   11.1608   -2.8325   -0.9561 H   0  0  0  0  0  0  0  0  0  0  0  0
   13.6518   -1.9608   -8.5259 H   0  0  0  0  0  0  0  0  0  0  0  0
   12.1604   -1.1729   -8.9819 H   0  0  0  0  0  0  0  0  0  0  0  0
   12.1610   -2.8710   -8.5704 H   0  0  0  0  0  0  0  0  0  0  0  0
    4.8706    0.8921   -6.9326 H   0  0  0  0  0  0  0  0  0  0  0  0
    4.8476    2.0974   -5.6678 H   0  0  0  0  0  0  0  0  0  0  0  0
    2.7628    0.2440   -6.2407 H   0  0  0  0  0  0  0  0  0  0  0  0
    4.7820    1.2015   -0.4267 H   0  0  0  0  0  0  0  0  0  0  0  0
    6.6020   -0.2245    3.2310 H   0  0  0  0  0  0  0  0  0  0  0  0
    5.7692    2.4264    0.3079 H   0  0  0  0  0  0  0  0  0  0  0  0
  1  2  1  0  0  0  0
  1 73  1  0  0  0  0
  1 74  1  0  0  0  0
  1 75  1  0  0  0  0
  2  3  1  0  0  0  0
  2  7  1  0  0  0  0
  2 76  1  6  0  0  0
  3  4  1  0  0  0  0
  3 72  1  0  0  0  0
  3 77  1  1  0  0  0
  4  5  1  0  0  0  0
  4 71  1  0  0  0  0
  4 78  1  6  0  0  0
  5  6  1  0  0  0  0
  5 70  1  0  0  0  0
  5 79  1  1  0  0  0
  6  7  1  0  0  0  0
  6  8  1  0  0  0  0
  6 80  1  1  0  0  0
  8  9  1  0  0  0  0
  9 10  1  0  0  0  0
  9 14  1  0  0  0  0
  9 81  1  1  0  0  0
 10 11  1  0  0  0  0
 10 68  1  0  0  0  0
 10 82  1  6  0  0  0
 11 12  1  0  0  0  0
 12 13  1  0  0  0  0
 12 27  1  0  0  0  0
 12 83  1  6  0  0  0
 13 14  1  0  0  0  0
 13 16  1  0  0  0  0
 13 84  1  6  0  0  0
 14 15  1  0  0  0  0
 14 85  1  6  0  0  0
 15 86  1  0  0  0  0
 16 17  1  0  0  0  0
 17 18  1  0  0  0  0
 17 22  1  0  0  0  0
 17 87  1  6  0  0  0
 18 19  1  0  0  0  0
 18 26  1  0  0  0  0
 18 88  1  1  0  0  0
 19 20  1  0  0  0  0
 19 25  1  0  0  0  0
 19 89  1  1  0  0  0
 20 21  1  0  0  0  0
 20 24  1  0  0  0  0
 20 90  1  1  0  0  0
 21 22  1  0  0  0  0
 21 23  1  0  0  0  0
 21 91  1  1  0  0  0
 23 92  1  0  0  0  0
 23 93  1  0  0  0  0
 23 94  1  0  0  0  0
 24 95  1  0  0  0  0
 25 96  1  0  0  0  0
 26 97  1  0  0  0  0
 27 28  1  0  0  0  0
 28 29  1  0  0  0  0
 28 41  1  0  0  0  0
 28 98  1  6  0  0  0
 29 30  1  0  0  0  0
 29 99  1  0  0  0  0
 29100  1  0  0  0  0
 30 31  1  0  0  0  0
 30101  1  0  0  0  0
 30102  1  0  0  0  0
 31 32  1  0  0  0  0
 31 40  1  0  0  0  0
 31 67  1  1  0  0  0
 32 33  1  0  0  0  0
 32 37  1  0  0  0  0
 32103  1  1  0  0  0
 33 34  1  0  0  0  0
 33104  1  0  0  0  0
 33105  1  0  0  0  0
 34 35  1  0  0  0  0
 34106  1  0  0  0  0
 34107  1  0  0  0  0
 35 36  1  0  0  0  0
 35 44  1  0  0  0  0
 35 66  1  1  0  0  0
 36 37  1  0  0  0  0
 36 42  1  0  0  0  0
 36108  1  6  0  0  0
 37 38  1  0  0  0  0
 37109  1  6  0  0  0
 38 39  1  0  0  0  0
 38110  1  0  0  0  0
 38111  1  0  0  0  0
 39 40  2  0  0  0  0
 39112  1  0  0  0  0
 40 41  1  0  0  0  0
 41113  1  0  0  0  0
 41114  1  0  0  0  0
 42 43  1  0  0  0  0
 42115  1  0  0  0  0
 42116  1  0  0  0  0
 43 44  1  0  0  0  0
 43 47  1  0  0  0  0
 43117  1  6  0  0  0
 44 45  1  0  0  0  0
 44118  1  6  0  0  0
 45 46  2  0  0  0  0
 45 65  1  0  0  0  0
 46 47  1  0  0  0  0
 46 48  1  0  0  0  0
 48 49  1  0  0  0  0
 48119  1  0  0  0  0
 48120  1  0  0  0  0
 49 50  1  0  0  0  0
 49121  1  0  0  0  0
 49122  1  0  0  0  0
 50 51  1  0  0  0  0
 50 52  1  0  0  0  0
 50123  1  1  0  0  0
 51124  1  0  0  0  0
 51125  1  0  0  0  0
 51126  1  0  0  0  0
 52 53  1  0  0  0  0
 52127  1  0  0  0  0
 52128  1  0  0  0  0
 53 54  1  0  0  0  0
 54 55  1  0  0  0  0
 54 59  1  0  0  0  0
 54129  1  6  0  0  0
 55 56  1  0  0  0  0
 55 64  1  0  0  0  0
 55130  1  1  0  0  0
 56 57  1  0  0  0  0
 56 63  1  0  0  0  0
 56131  1  6  0  0  0
 57 58  1  0  0  0  0
 57 62  1  0  0  0  0
 57132  1  1  0  0  0
 58 59  1  0  0  0  0
 58 60  1  0  0  0  0
 58133  1  6  0  0  0
 60 61  1  0  0  0  0
 60134  1  0  0  0  0
 60135  1  0  0  0  0
 61136  1  0  0  0  0
 62137  1  0  0  0  0
 63138  1  0  0  0  0
 64139  1  0  0  0  0
 65140  1  0  0  0  0
 65141  1  0  0  0  0
 65142  1  0  0  0  0
 66143  1  0  0  0  0
 66144  1  0  0  0  0
 66145  1  0  0  0  0
 67146  1  0  0  0  0
 67147  1  0  0  0  0
 67148  1  0  0  0  0
 68 69  1  0  0  0  0
 68149  1  0  0  0  0
 68150  1  0  0  0  0
 69151  1  0  0  0  0
 70152  1  0  0  0  0
 71153  1  0  0  0  0
 72154  1  0  0  0  0
M  END
$$$$
