
 OpenBabel03102508543D

 74 78  0  0  1  0  0  0  0  0999 V2000
    1.0227   -0.0377   -0.0898 C   0  0  0  0  0  0  0  0  0  0  0  0
    2.4629   -0.0377   -0.0898 C   0  0  0  0  0  0  0  0  0  0  0  0
    3.1830    1.1192   -0.5558 C   0  0  0  0  0  0  0  0  0  0  0  0
    2.4629    2.2761   -1.0218 C   0  0  0  0  0  0  0  0  0  0  0  0
    3.1830    3.4330   -1.4879 C   0  0  0  0  0  0  0  0  0  0  0  0
    0.3026   -1.1946    0.3762 C   0  0  0  0  0  0  0  0  0  0  0  0
   -1.2174   -1.1946    0.3762 C   0  0  0  0  0  0  0  0  0  0  0  0
   -1.9375   -2.3515    0.8422 C   0  0  0  0  0  0  0  0  0  0  0  0
   -1.2174   -3.5085    1.3083 C   0  0  0  0  0  0  0  0  0  0  0  0
   -1.8529   -4.5294    1.7195 O   0  0  0  0  0  0  0  0  0  0  0  0
    0.2228   -3.5085    1.3083 C   0  0  0  0  0  0  0  0  0  0  0  0
    0.9429   -4.6654    1.7743 C   0  0  0  0  0  0  0  0  0  0  0  0
    0.2228   -5.8223    2.2403 C   0  0  0  0  0  0  0  0  0  0  0  0
   -1.2174   -5.8223    2.2403 C   0  0  0  0  0  0  0  0  0  0  0  0
   -1.9375   -4.6654    1.7743 C   0  0  0  0  0  0  0  0  0  0  0  0
    0.9429   -2.3515    0.8422 C   0  0  0  0  0  0  0  0  0  0  0  0
   -1.8902   -0.1138   -0.0591 O   0  0  0  0  0  0  0  0  0  0  0  0
   -1.9274   -6.9630    2.6998 O   0  0  0  0  0  0  0  0  0  0  0  0
    2.3629   -4.6654    1.7743 O   0  0  0  0  0  0  0  0  0  0  0  0
   -3.3575   -2.3515    0.8422 O   0  0  0  0  0  0  0  0  0  0  0  0
   -4.0675   -3.4922    1.3017 C   0  0  1  0  0  0  0  0  0  0  0  0
   -6.1992   -6.1645    5.0541 C   0  0  1  0  0  0  0  0  0  0  0  0
   -6.5664   -5.8889    3.6051 C   0  0  2  0  0  0  0  0  0  0  0  0
   -5.8064   -4.6679    3.1133 C   0  0  1  0  0  0  0  0  0  0  0  0
   -6.1736   -4.3922    1.6643 C   0  0  2  0  0  0  0  0  0  0  0  0
   -5.4636   -3.2515    1.2048 O   0  0  0  0  0  0  0  0  0  0  0  0
   -7.6680   -4.1346    1.5605 C   0  0  0  0  0  0  0  0  0  0  0  0
   -8.3780   -5.2753    2.0200 O   0  0  0  0  0  0  0  0  0  0  0  0
   -9.7741   -5.0346    1.9230 C   0  0  1  0  0  0  0  0  0  0  0  0
  -14.1090   -5.1257   -0.7162 C   0  0  1  0  0  0  0  0  0  0  0  0
  -13.7418   -5.4014    0.7328 C   0  0  2  0  0  0  0  0  0  0  0  0
  -12.2474   -5.6590    0.8365 C   0  0  1  0  0  0  0  0  0  0  0  0
  -11.8802   -5.9346    2.2855 C   0  0  2  0  0  0  0  0  0  0  0  0
  -10.4841   -6.1753    2.3825 O   0  0  0  0  0  0  0  0  0  0  0  0
  -12.6402   -7.1556    2.7774 C   0  0  0  0  0  0  0  0  0  0  0  0
  -14.0363   -6.9149    2.6804 O   0  0  0  0  0  0  0  0  0  0  0  0
  -11.9044   -6.7829    0.0393 O   0  0  0  0  0  0  0  0  0  0  0  0
  -14.4518   -6.5420    1.1922 O   0  0  0  0  0  0  0  0  0  0  0  0
  -13.3990   -3.9850   -1.1757 O   0  0  0  0  0  0  0  0  0  0  0  0
   -6.1495   -3.5440    3.9105 O   0  0  0  0  0  0  0  0  0  0  0  0
   -7.9625   -5.6482    3.5081 O   0  0  0  0  0  0  0  0  0  0  0  0
   -4.8031   -6.4052    5.1510 O   0  0  0  0  0  0  0  0  0  0  0  0
    1.0429    2.2761   -1.0218 O   0  0  0  0  0  0  0  0  0  0  0  0
    4.6030    1.1192   -0.5558 O   0  0  0  0  0  0  0  0  0  0  0  0
    0.5067    0.7913   -0.4237 H   0  0  0  0  0  0  0  0  0  0  0  0
    2.9789   -0.8667    0.2441 H   0  0  0  0  0  0  0  0  0  0  0  0
    3.6990    4.2621   -1.8218 H   0  0  0  0  0  0  0  0  0  0  0  0
    0.7388   -6.6513    2.5742 H   0  0  0  0  0  0  0  0  0  0  0  0
   -2.9552   -4.5065    1.7103 H   0  0  0  0  0  0  0  0  0  0  0  0
   -1.4589   -7.7157    3.0030 H   0  0  0  0  0  0  0  0  0  0  0  0
    2.8314   -3.9127    1.4711 H   0  0  0  0  0  0  0  0  0  0  0  0
   -3.1607   -3.9404    0.9529 H   0  0  0  0  0  0  0  0  0  0  0  0
   -6.8002   -6.4430    5.8944 H   0  0  0  0  0  0  0  0  0  0  0  0
   -6.3079   -6.7357    3.0044 H   0  0  0  0  0  0  0  0  0  0  0  0
   -4.7544   -4.8492    3.1863 H   0  0  0  0  0  0  0  0  0  0  0  0
   -5.9151   -5.2391    1.0635 H   0  0  0  0  0  0  0  0  0  0  0  0
   -7.9265   -3.9406    0.5405 H   0  0  0  0  0  0  0  0  0  0  0  0
   -7.9265   -3.2877    2.1612 H   0  0  0  0  0  0  0  0  0  0  0  0
   -9.4017   -4.0398    2.0516 H   0  0  0  0  0  0  0  0  0  0  0  0
  -14.9345   -5.4568   -1.3111 H   0  0  0  0  0  0  0  0  0  0  0  0
  -14.0003   -4.5545    1.3335 H   0  0  0  0  0  0  0  0  0  0  0  0
  -11.7124   -4.7995    0.4903 H   0  0  0  0  0  0  0  0  0  0  0  0
  -12.1387   -5.0877    2.8863 H   0  0  0  0  0  0  0  0  0  0  0  0
  -12.3817   -7.3496    3.7974 H   0  0  0  0  0  0  0  0  0  0  0  0
  -12.3817   -8.0025    2.1766 H   0  0  0  0  0  0  0  0  0  0  0  0
  -14.2706   -6.1472    3.2250 H   0  0  0  0  0  0  0  0  0  0  0  0
  -12.3894   -7.5621    0.3532 H   0  0  0  0  0  0  0  0  0  0  0  0
  -14.2175   -7.3098    0.6476 H   0  0  0  0  0  0  0  0  0  0  0  0
  -12.6786   -3.7824   -0.5586 H   0  0  0  0  0  0  0  0  0  0  0  0
   -7.1031   -3.3796    3.8443 H   0  0  0  0  0  0  0  0  0  0  0  0
   -8.1968   -4.8804    4.0527 H   0  0  0  0  0  0  0  0  0  0  0  0
   -4.3673   -6.1137    4.3349 H   0  0  0  0  0  0  0  0  0  0  0  0
    0.5744    1.5234   -0.7186 H   0  0  0  0  0  0  0  0  0  0  0  0
    5.0715    0.3665   -0.2526 H   0  0  0  0  0  0  0  0  0  0  0  0
  1  2  2  0  0  0  0
  1  6  1  0  0  0  0
  1 45  1  0  0  0  0
  2  3  1  0  0  0  0
  2 46  1  0  0  0  0
  3  4  2  0  0  0  0
  3 44  1  0  0  0  0
  4  5  1  0  0  0  0
  4 43  1  0  0  0  0
  5  6  2  0  0  0  0
  5 47  1  0  0  0  0
  6  7  1  0  0  0  0
  7  8  2  0  0  0  0
  7 17  1  0  0  0  0
  8  9  1  0  0  0  0
  8 20  1  0  0  0  0
  9 10  2  0  0  0  0
  9 11  1  0  0  0  0
 11 12  2  0  0  0  0
 11 16  1  0  0  0  0
 12 13  1  0  0  0  0
 12 19  1  0  0  0  0
 13 14  2  0  0  0  0
 13 48  1  0  0  0  0
 14 15  1  0  0  0  0
 14 18  1  0  0  0  0
 15 16  2  0  0  0  0
 15 49  1  0  0  0  0
 16 17  1  0  0  0  0
 18 50  1  0  0  0  0
 19 51  1  0  0  0  0
 20 21  1  0  0  0  0
 21 22  1  0  0  0  0
 21 26  1  0  0  0  0
 21 52  1  6  0  0  0
 22 23  1  0  0  0  0
 22 42  1  0  0  0  0
 22 53  1  1  0  0  0
 23 24  1  0  0  0  0
 23 41  1  0  0  0  0
 23 54  1  6  0  0  0
 24 25  1  0  0  0  0
 24 40  1  0  0  0  0
 24 55  1  1  0  0  0
 25 26  1  0  0  0  0
 25 27  1  0  0  0  0
 25 56  1  6  0  0  0
 27 28  1  0  0  0  0
 27 57  1  0  0  0  0
 27 58  1  0  0  0  0
 28 29  1  0  0  0  0
 29 30  1  0  0  0  0
 29 34  1  0  0  0  0
 29 59  1  1  0  0  0
 30 31  1  0  0  0  0
 30 39  1  0  0  0  0
 30 60  1  6  0  0  0
 31 32  1  0  0  0  0
 31 38  1  0  0  0  0
 31 61  1  1  0  0  0
 32 33  1  0  0  0  0
 32 37  1  0  0  0  0
 32 62  1  6  0  0  0
 33 34  1  0  0  0  0
 33 35  1  0  0  0  0
 33 63  1  1  0  0  0
 35 36  1  0  0  0  0
 35 64  1  0  0  0  0
 35 65  1  0  0  0  0
 36 66  1  0  0  0  0
 37 67  1  0  0  0  0
 38 68  1  0  0  0  0
 39 69  1  0  0  0  0
 40 70  1  0  0  0  0
 41 71  1  0  0  0  0
 42 72  1  0  0  0  0
 43 73  1  0  0  0  0
 44 74  1  0  0  0  0
M  END
$$$$
