
 OpenBabel03102508543D

 73 77  0  0  1  0  0  0  0  0999 V2000
    7.8194    3.6313    4.5431 C   0  0  0  0  0  0  0  0  0  0  0  0
    7.5687    2.6778    3.3861 C   0  0  1  0  0  0  0  0  0  0  0  0
    7.7793    1.5712   -1.5632 C   0  0  1  0  0  0  0  0  0  0  0  0
    7.9923    0.7739   -0.2867 C   0  0  2  0  0  0  0  0  0  0  0  0
    8.2429    1.7274    0.8702 C   0  0  2  0  0  0  0  0  0  0  0  0
    8.4558    0.9302    2.1468 C   0  0  1  0  0  0  0  0  0  0  0  0
    8.6899    1.8209    3.2276 O   0  0  0  0  0  0  0  0  0  0  0  0
    7.2994    0.1516    2.4170 O   0  0  0  0  0  0  0  0  0  0  0  0
    6.1394    0.8940    2.0710 C   0  0  0  0  0  0  0  0  0  0  0  0
    5.4182   -0.3701    2.5096 C   0  0  2  0  0  0  0  0  0  0  0  0
    4.5404   -0.4322    7.5087 C   0  0  2  0  0  0  0  0  0  0  0  0
    5.4514   -1.2190    6.5805 C   0  0  1  0  0  0  0  0  0  0  0  0
    4.9576   -1.0814    5.1495 C   0  0  2  0  0  0  0  0  0  0  0  0
    5.8685   -1.8682    4.2213 C   0  0  1  0  0  0  0  0  0  0  0  0
    5.4072   -1.7397    2.8845 O   0  0  0  0  0  0  0  0  0  0  0  0
    7.1919   -1.3622    4.3161 O   0  0  0  0  0  0  0  0  0  0  0  0
    7.8680   -1.3844    5.5646 C   0  0  0  0  0  0  0  0  0  0  0  0
    7.2070   -1.9078    6.7322 C   0  0  0  0  0  0  0  0  0  0  0  0
    5.9489   -2.3758    6.6400 O   0  0  0  0  0  0  0  0  0  0  0  0
    5.3084   -2.3548    5.4570 C   0  0  0  0  0  0  0  0  0  0  0  0
    3.9617   -2.8557    5.3583 C   0  0  0  0  0  0  0  0  0  0  0  0
    3.2760   -2.8332    4.0920 C   0  0  0  0  0  0  0  0  0  0  0  0
    3.9370   -2.3098    2.9244 C   0  0  0  0  0  0  0  0  0  0  0  0
    5.2837   -1.8088    3.0231 C   0  0  0  0  0  0  0  0  0  0  0  0
    5.9693   -1.8313    4.2894 C   0  0  0  0  0  0  0  0  0  0  0  0
    9.2146   -0.8834    5.6633 C   0  0  0  0  0  0  0  0  0  0  0  0
    9.7979   -0.4215    4.6330 O   0  0  0  0  0  0  0  0  0  0  0  0
    5.9354   -1.2927    1.8719 O   0  0  0  0  0  0  0  0  0  0  0  0
    1.9482   -3.3271    3.9947 O   0  0  0  0  0  0  0  0  0  0  0  0
    7.9306   -1.9315    8.0687 C   0  0  0  0  0  0  0  0  0  0  0  0
    7.2697   -2.4550    9.2363 C   0  0  0  0  0  0  0  0  0  0  0  0
    7.9553   -2.4775   10.5026 C   0  0  0  0  0  0  0  0  0  0  0  0
    9.3020   -1.9765   10.6013 C   0  0  0  0  0  0  0  0  0  0  0  0
    9.9877   -1.9990   11.8676 C   0  0  0  0  0  0  0  0  0  0  0  0
    9.2773   -1.4306    8.1674 C   0  0  0  0  0  0  0  0  0  0  0  0
    9.9537   -1.4604    9.4501 O   0  0  0  0  0  0  0  0  0  0  0  0
    7.3036   -2.9936   11.6538 O   0  0  0  0  0  0  0  0  0  0  0  0
    4.9686    0.2881    4.7746 O   0  0  0  0  0  0  0  0  0  0  0  0
    6.7748   -0.7130    6.6752 O   0  0  0  0  0  0  0  0  0  0  0  0
    4.0049   -0.7475    8.7855 O   0  0  0  0  0  0  0  0  0  0  0  0
    7.1217    2.5843    1.0288 O   0  0  0  0  0  0  0  0  0  0  0  0
    9.1134   -0.0830   -0.4453 O   0  0  0  0  0  0  0  0  0  0  0  0
    6.6582    2.4281   -1.4047 O   0  0  0  0  0  0  0  0  0  0  0  0
    6.9745    4.2770    4.6625 H   0  0  0  0  0  0  0  0  0  0  0  0
    8.6907    4.2179    4.3394 H   0  0  0  0  0  0  0  0  0  0  0  0
    7.9692    3.0701    5.4417 H   0  0  0  0  0  0  0  0  0  0  0  0
    6.5687    2.8728    3.7130 H   0  0  0  0  0  0  0  0  0  0  0  0
    8.1368    1.4175   -2.5600 H   0  0  0  0  0  0  0  0  0  0  0  0
    7.1209    0.1873   -0.0831 H   0  0  0  0  0  0  0  0  0  0  0  0
    9.1142    2.3141    0.6666 H   0  0  0  0  0  0  0  0  0  0  0  0
    9.3006    0.2845    2.0273 H   0  0  0  0  0  0  0  0  0  0  0  0
    6.0435    1.1446    1.0352 H   0  0  0  0  0  0  0  0  0  0  0  0
    5.9192    1.8698    2.4507 H   0  0  0  0  0  0  0  0  0  0  0  0
    5.1085   -0.2171    1.4969 H   0  0  0  0  0  0  0  0  0  0  0  0
    4.1497    0.2873    8.1975 H   0  0  0  0  0  0  0  0  0  0  0  0
    5.4431   -2.2510    6.8630 H   0  0  0  0  0  0  0  0  0  0  0  0
    3.9604   -1.4627    5.0781 H   0  0  0  0  0  0  0  0  0  0  0  0
    5.8602   -2.9002    4.5038 H   0  0  0  0  0  0  0  0  0  0  0  0
    3.4880   -3.2308    6.1950 H   0  0  0  0  0  0  0  0  0  0  0  0
    3.4457   -2.2937    2.0170 H   0  0  0  0  0  0  0  0  0  0  0  0
    5.4893   -1.2781    1.0480 H   0  0  0  0  0  0  0  0  0  0  0  0
    1.5182   -3.6677    4.7543 H   0  0  0  0  0  0  0  0  0  0  0  0
    6.3047   -2.8139    9.1655 H   0  0  0  0  0  0  0  0  0  0  0  0
   10.3343   -2.0853   12.8358 H   0  0  0  0  0  0  0  0  0  0  0  0
    9.8839   -1.0279    7.4360 H   0  0  0  0  0  0  0  0  0  0  0  0
    9.5076   -1.4458    8.6262 H   0  0  0  0  0  0  0  0  0  0  0  0
    6.4275   -3.3195   11.5896 H   0  0  0  0  0  0  0  0  0  0  0  0
    5.8726    0.6338    4.8393 H   0  0  0  0  0  0  0  0  0  0  0  0
    6.7823    0.2226    6.4191 H   0  0  0  0  0  0  0  0  0  0  0  0
    4.0509   -1.7059    8.9278 H   0  0  0  0  0  0  0  0  0  0  0  0
    6.3318    2.0524    1.2134 H   0  0  0  0  0  0  0  0  0  0  0  0
    9.9033    0.4489   -0.6299 H   0  0  0  0  0  0  0  0  0  0  0  0
    6.4283    2.4891   -0.4643 H   0  0  0  0  0  0  0  0  0  0  0  0
  1  2  1  0  0  0  0
  1 44  1  0  0  0  0
  1 45  1  0  0  0  0
  1 46  1  0  0  0  0
  2  3  1  0  0  0  0
  2  7  1  0  0  0  0
  2 47  1  1  0  0  0
  3  4  1  0  0  0  0
  3 43  1  0  0  0  0
  3 48  1  6  0  0  0
  4  5  1  0  0  0  0
  4 42  1  0  0  0  0
  4 49  1  1  0  0  0
  5  6  1  0  0  0  0
  5 41  1  0  0  0  0
  5 50  1  6  0  0  0
  6  7  1  0  0  0  0
  6  8  1  0  0  0  0
  6 51  1  6  0  0  0
  8  9  1  0  0  0  0
  9 52  1  0  0  0  0
  9 53  1  0  0  0  0
 10 11  1  0  0  0  0
 10 15  1  0  0  0  0
 10  9  1  0  0  0  0
 10 54  1  6  0  0  0
 11 12  1  0  0  0  0
 11 40  1  0  0  0  0
 11 55  1  1  0  0  0
 12 13  1  0  0  0  0
 12 39  1  0  0  0  0
 12 56  1  1  0  0  0
 13 14  1  0  0  0  0
 13 38  1  0  0  0  0
 13 57  1  6  0  0  0
 14 15  1  0  0  0  0
 14 16  1  0  0  0  0
 14 58  1  1  0  0  0
 16 17  1  0  0  0  0
 17 18  2  0  0  0  0
 17 26  1  0  0  0  0
 18 19  1  0  0  0  0
 18 30  1  0  0  0  0
 19 20  1  0  0  0  0
 20 21  2  0  0  0  0
 20 25  1  0  0  0  0
 21 22  1  0  0  0  0
 21 59  1  0  0  0  0
 22 23  2  0  0  0  0
 22 29  1  0  0  0  0
 23 24  1  0  0  0  0
 23 60  1  0  0  0  0
 24 25  2  0  0  0  0
 24 28  1  0  0  0  0
 25 26  1  0  0  0  0
 26 27  2  0  0  0  0
 28 61  1  0  0  0  0
 29 62  1  0  0  0  0
 30 31  2  0  0  0  0
 30 35  1  0  0  0  0
 31 32  1  0  0  0  0
 31 63  1  0  0  0  0
 32 33  2  0  0  0  0
 32 37  1  0  0  0  0
 33 34  1  0  0  0  0
 33 36  1  0  0  0  0
 34 35  2  0  0  0  0
 34 64  1  0  0  0  0
 35 65  1  0  0  0  0
 36 66  1  0  0  0  0
 37 67  1  0  0  0  0
 38 68  1  0  0  0  0
 39 69  1  0  0  0  0
 40 70  1  0  0  0  0
 41 71  1  0  0  0  0
 42 72  1  0  0  0  0
 43 73  1  0  0  0  0
M  END
$$$$
