
 OpenBabel03102508543D

 60 61  0  0  0  0  0  0  0  0999 V2000
    0.9028   -0.0167   -0.0166 C   0  0  0  0  0  0  0  0  0  0  0  0
    2.3228   -0.0167   -0.0166 O   0  0  0  0  0  0  0  0  0  0  0  0
    3.0328    0.8568   -0.8822 C   0  0  0  0  0  0  0  0  0  0  0  0
    4.4730    0.8568   -0.8822 C   0  0  0  0  0  0  0  0  0  0  0  0
    5.1931   -0.0292   -0.0043 C   0  0  0  0  0  0  0  0  0  0  0  0
    4.4730   -0.9151    0.8736 C   0  0  0  0  0  0  0  0  0  0  0  0
    5.1931   -1.8011    1.7515 C   0  0  0  0  0  0  0  0  0  0  0  0
    2.3127    1.7428   -1.7601 C   0  0  0  0  0  0  0  0  0  0  0  0
    4.4331   -2.7361    2.6780 C   0  0  0  0  0  0  0  0  0  0  0  0
    5.1133   -3.5730    3.5073 C   0  0  0  0  0  0  0  0  0  0  0  0
    4.3533   -4.5081    4.4338 C   0  0  0  0  0  0  0  0  0  0  0  0
    3.0824   -4.5081    4.4338 O   0  0  0  0  0  0  0  0  0  0  0  0
    5.0883   -5.4124    5.3299 N   0  0  0  0  0  0  0  0  0  0  0  0
    4.3533   -6.3166    6.2259 C   0  0  0  0  0  0  0  0  0  0  0  0
    5.3411   -7.1373    7.0391 C   0  0  0  0  0  0  0  0  0  0  0  0
    4.5811   -8.0724    7.9657 C   0  0  0  0  0  0  0  0  0  0  0  0
    5.5688   -8.8930    8.7789 C   0  0  0  0  0  0  0  0  0  0  0  0
    4.8338   -9.7973    9.6749 N   0  0  0  0  0  0  0  0  0  0  0  0
    5.5688  -10.7016   10.5710 C   0  0  0  0  0  0  0  0  0  0  0  0
    6.8397  -10.7016   10.5710 O   0  0  0  0  0  0  0  0  0  0  0  0
    4.8088  -11.6367   11.4975 C   0  0  0  0  0  0  0  0  0  0  0  0
    5.4890  -12.4735   12.3268 C   0  0  0  0  0  0  0  0  0  0  0  0
    4.7290  -13.4086   13.2533 C   0  0  0  0  0  0  0  0  0  0  0  0
    5.4491  -14.2945   14.1312 C   0  0  0  0  0  0  0  0  0  0  0  0
    4.7290  -15.1805   15.0091 C   0  0  0  0  0  0  0  0  0  0  0  0
    3.2888  -15.1805   15.0091 C   0  0  0  0  0  0  0  0  0  0  0  0
    2.5687  -16.0665   15.8870 C   0  0  0  0  0  0  0  0  0  0  0  0
    3.2888  -13.4086   13.2533 C   0  0  0  0  0  0  0  0  0  0  0  0
    2.5788  -14.3070   14.1435 O   0  0  0  0  0  0  0  0  0  0  0  0
    5.4390  -16.0540   15.8747 O   0  0  0  0  0  0  0  0  0  0  0  0
    4.7290  -16.9276   16.7403 C   0  0  0  0  0  0  0  0  0  0  0  0
    5.1830    1.7303   -1.7478 O   0  0  0  0  0  0  0  0  0  0  0  0
    0.5462   -0.7333    0.6934 H   0  0  0  0  0  0  0  0  0  0  0  0
    0.5462   -0.2734   -0.9923 H   0  0  0  0  0  0  0  0  0  0  0  0
    0.5462    0.9565    0.2489 H   0  0  0  0  0  0  0  0  0  0  0  0
    6.2251   -0.0292   -0.0043 H   0  0  0  0  0  0  0  0  0  0  0  0
    3.4410   -0.9151    0.8736 H   0  0  0  0  0  0  0  0  0  0  0  0
    1.7967    2.3776   -2.3892 H   0  0  0  0  0  0  0  0  0  0  0  0
    3.4011   -2.7361    2.6780 H   0  0  0  0  0  0  0  0  0  0  0  0
    6.1453   -3.5730    3.5073 H   0  0  0  0  0  0  0  0  0  0  0  0
    6.0728   -5.4124    5.3299 H   0  0  0  0  0  0  0  0  0  0  0  0
    3.7382   -6.9718    5.6452 H   0  0  0  0  0  0  0  0  0  0  0  0
    3.7382   -5.7420    6.8864 H   0  0  0  0  0  0  0  0  0  0  0  0
    5.9562   -6.4821    7.6198 H   0  0  0  0  0  0  0  0  0  0  0  0
    5.9562   -7.7120    6.3786 H   0  0  0  0  0  0  0  0  0  0  0  0
    3.9659   -8.7276    7.3850 H   0  0  0  0  0  0  0  0  0  0  0  0
    3.9659   -7.4977    8.6261 H   0  0  0  0  0  0  0  0  0  0  0  0
    6.1840   -8.2378    9.3595 H   0  0  0  0  0  0  0  0  0  0  0  0
    6.1840   -9.4677    8.1184 H   0  0  0  0  0  0  0  0  0  0  0  0
    3.8493   -9.7973    9.6749 H   0  0  0  0  0  0  0  0  0  0  0  0
    3.7768  -11.6367   11.4975 H   0  0  0  0  0  0  0  0  0  0  0  0
    6.5210  -12.4735   12.3268 H   0  0  0  0  0  0  0  0  0  0  0  0
    6.4811  -14.2945   14.1312 H   0  0  0  0  0  0  0  0  0  0  0  0
    2.2082  -16.7533   16.5676 H   0  0  0  0  0  0  0  0  0  0  0  0
    2.6316  -12.8434   12.6932 H   0  0  0  0  0  0  0  0  0  0  0  0
    3.0473  -13.7306   13.5724 H   0  0  0  0  0  0  0  0  0  0  0  0
    5.4243  -17.5053   17.3127 H   0  0  0  0  0  0  0  0  0  0  0  0
    4.1139  -17.5828   16.1596 H   0  0  0  0  0  0  0  0  0  0  0  0
    4.1139  -16.3529   17.4008 H   0  0  0  0  0  0  0  0  0  0  0  0
    4.7145    2.3067   -2.3190 H   0  0  0  0  0  0  0  0  0  0  0  0
  1  2  1  0  0  0  0
  1 33  1  0  0  0  0
  1 34  1  0  0  0  0
  1 35  1  0  0  0  0
  2  3  1  0  0  0  0
  3  4  2  0  0  0  0
  3  8  1  0  0  0  0
  4  5  1  0  0  0  0
  4 32  1  0  0  0  0
  5  6  2  0  0  0  0
  5 36  1  0  0  0  0
  6  7  1  0  0  0  0
  6 37  1  0  0  0  0
  7  8  2  0  0  0  0
  7  9  1  0  0  0  0
  8 38  1  0  0  0  0
  9 10  2  0  0  0  0
  9 39  1  0  0  0  0
 10 11  1  0  0  0  0
 10 40  1  0  0  0  0
 11 12  2  0  0  0  0
 11 13  1  0  0  0  0
 13 14  1  0  0  0  0
 13 41  1  0  0  0  0
 14 15  1  0  0  0  0
 14 42  1  0  0  0  0
 14 43  1  0  0  0  0
 15 16  1  0  0  0  0
 15 44  1  0  0  0  0
 15 45  1  0  0  0  0
 16 17  1  0  0  0  0
 16 46  1  0  0  0  0
 16 47  1  0  0  0  0
 17 18  1  0  0  0  0
 17 48  1  0  0  0  0
 17 49  1  0  0  0  0
 18 19  1  0  0  0  0
 18 50  1  0  0  0  0
 19 20  2  0  0  0  0
 19 21  1  0  0  0  0
 21 22  2  0  0  0  0
 21 51  1  0  0  0  0
 22 23  1  0  0  0  0
 22 52  1  0  0  0  0
 23 24  2  0  0  0  0
 23 28  1  0  0  0  0
 24 25  1  0  0  0  0
 24 53  1  0  0  0  0
 25 26  2  0  0  0  0
 25 30  1  0  0  0  0
 26 27  1  0  0  0  0
 26 29  1  0  0  0  0
 27 28  2  0  0  0  0
 27 54  1  0  0  0  0
 28 55  1  0  0  0  0
 29 56  1  0  0  0  0
 30 31  1  0  0  0  0
 31 57  1  0  0  0  0
 31 58  1  0  0  0  0
 31 59  1  0  0  0  0
 32 60  1  0  0  0  0
M  END
$$$$
