
 OpenBabel03102508543D

157165  0  0  1  0  0  0  0  0999 V2000
    0.9531    0.0655   -0.0592 C   0  0  0  0  0  0  0  0  0  0  0  0
    2.4731    0.0655   -0.0592 C   0  0  0  0  0  0  0  0  0  0  0  0
    3.1533    1.2397    0.0379 C   0  0  0  0  0  0  0  0  0  0  0  0
    2.4433    2.4652    0.1393 O   0  0  0  0  0  0  0  0  0  0  0  0
    1.0233    2.4652    0.1393 C   0  0  2  0  0  0  0  0  0  0  0  0
   -3.0301    3.0770    1.4352 C   0  0  1  0  0  0  0  0  0  0  0  0
   -1.5101    3.0770    1.4352 C   0  0  2  0  0  0  0  0  0  0  0  0
   -1.0034    3.8934    0.2575 C   0  0  1  0  0  0  0  0  0  0  0  0
    0.5166    3.8934    0.2575 C   0  0  0  0  0  0  0  0  0  0  0  0
   -1.5101    5.3216    0.3756 C   0  0  2  0  0  0  0  0  0  0  0  0
   -5.0567    2.2606    2.6130 C   0  0  0  0  0  0  0  0  0  0  0  0
   -5.5634    3.6888    2.7312 C   0  0  0  0  0  0  0  0  0  0  0  0
   -5.0567    4.5052    1.5534 C   0  0  1  0  0  0  0  0  0  0  0  0
   -5.5634    5.9334    1.6715 C   0  0  0  0  0  0  0  0  0  0  0  0
   -7.0834    5.9334    1.6715 C   0  0  2  0  0  0  0  0  0  0  0  0
   -7.5901    5.1170    2.8493 C   0  0  0  0  0  0  0  0  0  0  0  0
   -3.0301    5.1170    2.8493 C   0  0  0  0  0  0  0  0  0  0  0  0
   -3.5367    4.5052    1.5534 C   0  0  2  0  0  0  0  0  0  0  0  0
   -3.0301    5.3216    0.3756 C   0  0  1  0  0  0  0  0  0  0  0  0
   -3.5367    6.7498    0.4937 C   0  0  0  0  0  0  0  0  0  0  0  0
   -5.0567    6.7498    0.4937 C   0  0  0  0  0  0  0  0  0  0  0  0
   -5.6922    7.8467    0.5845 O   0  0  0  0  0  0  0  0  0  0  0  0
   -3.0301    3.0770    1.4352 C   0  0  0  0  0  0  0  0  0  0  0  0
   -7.5567    5.3619    0.4609 O   0  0  0  0  0  0  0  0  0  0  0  0
   -7.0667    4.0314    0.3818 C   0  0  1  0  0  0  0  0  0  0  0  0
   -7.6418   -0.9513    1.1607 C   0  0  1  0  0  0  0  0  0  0  0  0
   -7.0151   -0.1142    0.0576 C   0  0  2  0  0  0  0  0  0  0  0  0
   -7.5396    1.3100    0.1422 C   0  0  2  0  0  0  0  0  0  0  0  0
   -6.9128    2.1471   -0.9608 C   0  0  2  0  0  0  0  0  0  0  0  0
   -7.4028    3.4776   -0.8818 O   0  0  0  0  0  0  0  0  0  0  0  0
   -7.2725    1.5542   -2.3134 C   0  0  0  0  0  0  0  0  0  0  0  0
   -6.7825    0.2238   -2.3924 O   0  0  0  0  0  0  0  0  0  0  0  0
   -7.2035    1.8639    1.4058 O   0  0  0  0  0  0  0  0  0  0  0  0
   -7.7890    1.0818    2.4363 C   0  0  1  0  0  0  0  0  0  0  0  0
   -7.6162   -2.8318    5.6642 C   0  0  1  0  0  0  0  0  0  0  0  0
   -8.1407   -1.4077    5.7488 C   0  0  2  0  0  0  0  0  0  0  0  0
   -7.5140   -0.5705    4.6458 C   0  0  1  0  0  0  0  0  0  0  0  0
   -8.0385    0.8536    4.7304 C   0  0  2  0  0  0  0  0  0  0  0  0
   -7.4529    1.6357    3.6999 O   0  0  0  0  0  0  0  0  0  0  0  0
   -7.6787    1.4465    6.0829 C   0  0  0  0  0  0  0  0  0  0  0  0
   -8.2643    0.6644    7.1134 O   0  0  0  0  0  0  0  0  0  0  0  0
   -6.1024   -0.5650    4.7998 O   0  0  0  0  0  0  0  0  0  0  0  0
   -7.8047   -0.8538    7.0124 O   0  0  0  0  0  0  0  0  0  0  0  0
   -7.9523   -3.3857    4.4006 O   0  0  0  0  0  0  0  0  0  0  0  0
   -7.4623   -4.7161    4.3216 C   0  0  1  0  0  0  0  0  0  0  0  0
   -8.0374   -9.6989    5.1004 C   0  0  1  0  0  0  0  0  0  0  0  0
   -7.4107   -8.8617    3.9974 C   0  0  2  0  0  0  0  0  0  0  0  0
   -7.9352   -7.4376    4.0820 C   0  0  2  0  0  0  0  0  0  0  0  0
   -7.3084   -6.6005    2.9789 C   0  0  2  0  0  0  0  0  0  0  0  0
   -7.7984   -5.2700    3.0580 O   0  0  0  0  0  0  0  0  0  0  0  0
   -7.6682   -7.1934    1.6264 C   0  0  0  0  0  0  0  0  0  0  0  0
   -7.1782   -8.5238    1.5473 O   0  0  0  0  0  0  0  0  0  0  0  0
   -7.5991   -6.8837    5.3456 O   0  0  0  0  0  0  0  0  0  0  0  0
   -7.7468   -9.4156    2.7338 O   0  0  0  0  0  0  0  0  0  0  0  0
   -7.7013   -9.1450    6.3640 O   0  0  0  0  0  0  0  0  0  0  0  0
   -7.3511   -0.6681   -1.2060 O   0  0  0  0  0  0  0  0  0  0  0  0
   -7.3057   -0.3974    2.4243 O   0  0  0  0  0  0  0  0  0  0  0  0
   -1.0034    1.6488    1.3171 C   0  0  0  0  0  0  0  0  0  0  0  0
    4.6733    1.2397    0.0379 C   0  0  0  0  0  0  0  0  0  0  0  0
    5.1799    2.6679    0.1561 C   0  0  0  0  0  0  0  0  0  0  0  0
    6.6999    2.6679    0.1561 C   0  0  1  0  0  0  0  0  0  0  0  0
    7.2066    2.0561   -1.1398 C   0  0  0  0  0  0  0  0  0  0  0  0
    7.2066    4.0960    0.2742 C   0  0  0  0  0  0  0  0  0  0  0  0
    8.6266    4.0960    0.2742 O   0  0  0  0  0  0  0  0  0  0  0  0
    9.0999    5.4303    0.3846 C   0  0  1  0  0  0  0  0  0  0  0  0
   10.4866    9.4163    3.2049 C   0  0  1  0  0  0  0  0  0  0  0  0
   10.9932    8.8045    1.9090 C   0  0  2  0  0  0  0  0  0  0  0  0
   10.4866    7.3763    1.7909 C   0  0  1  0  0  0  0  0  0  0  0  0
   10.9932    6.7645    0.4949 C   0  0  2  0  0  0  0  0  0  0  0  0
   10.5199    5.4303    0.3846 O   0  0  0  0  0  0  0  0  0  0  0  0
   12.5132    6.7645    0.4949 C   0  0  0  0  0  0  0  0  0  0  0  0
   12.9866    8.0987    0.6053 O   0  0  0  0  0  0  0  0  0  0  0  0
   10.9599    6.6136    2.8912 O   0  0  0  0  0  0  0  0  0  0  0  0
   12.4132    8.8045    1.9090 O   0  0  0  0  0  0  0  0  0  0  0  0
    9.0666    9.4163    3.2049 O   0  0  0  0  0  0  0  0  0  0  0  0
    0.5964   -0.8381   -0.5076 H   0  0  0  0  0  0  0  0  0  0  0  0
    0.5964    0.9057   -0.6176 H   0  0  0  0  0  0  0  0  0  0  0  0
    0.5964    0.1290    0.9476 H   0  0  0  0  0  0  0  0  0  0  0  0
    1.2738    1.4835   -0.2047 H   0  0  0  0  0  0  0  0  0  0  0  0
   -4.0579    3.3010    1.6312 H   0  0  0  0  0  0  0  0  0  0  0  0
   -1.3601    3.4628   -0.6548 H   0  0  0  0  0  0  0  0  0  0  0  0
    0.8733    4.3241    1.1697 H   0  0  0  0  0  0  0  0  0  0  0  0
    0.8733    4.4681   -0.5716 H   0  0  0  0  0  0  0  0  0  0  0  0
   -0.8124    6.1120    0.1930 H   0  0  0  0  0  0  0  0  0  0  0  0
   -4.7793    1.7558    3.5147 H   0  0  0  0  0  0  0  0  0  0  0  0
   -5.5524    1.4001    2.2146 H   0  0  0  0  0  0  0  0  0  0  0  0
   -5.2067    4.1195    3.6434 H   0  0  0  0  0  0  0  0  0  0  0  0
   -6.6334    3.6888    2.7312 H   0  0  0  0  0  0  0  0  0  0  0  0
   -5.4134    4.0746    0.6411 H   0  0  0  0  0  0  0  0  0  0  0  0
   -5.2067    6.5081    0.8424 H   0  0  0  0  0  0  0  0  0  0  0  0
   -5.2067    6.3641    2.5838 H   0  0  0  0  0  0  0  0  0  0  0  0
   -7.4400    6.9388    1.7547 H   0  0  0  0  0  0  0  0  0  0  0  0
   -8.0945    4.1958    2.6447 H   0  0  0  0  0  0  0  0  0  0  0  0
   -8.2811    5.3766    3.6238 H   0  0  0  0  0  0  0  0  0  0  0  0
   -2.5257    4.4792    3.5448 H   0  0  0  0  0  0  0  0  0  0  0  0
   -2.3390    5.9176    3.0117 H   0  0  0  0  0  0  0  0  0  0  0  0
   -3.3867    4.8910   -0.5367 H   0  0  0  0  0  0  0  0  0  0  0  0
   -3.1801    7.3245   -0.3354 H   0  0  0  0  0  0  0  0  0  0  0  0
   -3.1801    7.1805    1.4060 H   0  0  0  0  0  0  0  0  0  0  0  0
   -3.3867    2.5023    2.2643 H   0  0  0  0  0  0  0  0  0  0  0  0
   -1.9601    3.0770    1.4352 H   0  0  0  0  0  0  0  0  0  0  0  0
   -3.3867    2.6464    0.5230 H   0  0  0  0  0  0  0  0  0  0  0  0
   -6.3688    4.4680    1.0654 H   0  0  0  0  0  0  0  0  0  0  0  0
   -8.0362   -1.9460    1.1551 H   0  0  0  0  0  0  0  0  0  0  0  0
   -5.9514   -0.1100    0.1737 H   0  0  0  0  0  0  0  0  0  0  0  0
   -8.6032    1.3058    0.0262 H   0  0  0  0  0  0  0  0  0  0  0  0
   -5.8491    2.1513   -0.8447 H   0  0  0  0  0  0  0  0  0  0  0  0
   -6.8313    2.1435   -3.0899 H   0  0  0  0  0  0  0  0  0  0  0  0
   -8.3362    1.5500   -2.4295 H   0  0  0  0  0  0  0  0  0  0  0  0
   -5.8183    0.2276   -2.2872 H   0  0  0  0  0  0  0  0  0  0  0  0
   -8.4749    0.9113    1.6329 H   0  0  0  0  0  0  0  0  0  0  0  0
   -7.2976   -3.5136    6.4248 H   0  0  0  0  0  0  0  0  0  0  0  0
   -9.2044   -1.4118    5.6327 H   0  0  0  0  0  0  0  0  0  0  0  0
   -7.7672   -0.9879    3.6936 H   0  0  0  0  0  0  0  0  0  0  0  0
   -9.1022    0.8494    4.6143 H   0  0  0  0  0  0  0  0  0  0  0  0
   -8.0480    2.4490    6.1425 H   0  0  0  0  0  0  0  0  0  0  0  0
   -6.6151    1.4507    6.1990 H   0  0  0  0  0  0  0  0  0  0  0  0
   -9.2285    0.6607    7.0082 H   0  0  0  0  0  0  0  0  0  0  0  0
   -5.8728   -0.1866    5.6630 H   0  0  0  0  0  0  0  0  0  0  0  0
   -6.8404   -0.8500    7.1176 H   0  0  0  0  0  0  0  0  0  0  0  0
   -6.7644   -4.2796    5.0051 H   0  0  0  0  0  0  0  0  0  0  0  0
   -8.4319  -10.6935    5.0949 H   0  0  0  0  0  0  0  0  0  0  0  0
   -6.3470   -8.8576    4.1134 H   0  0  0  0  0  0  0  0  0  0  0  0
   -8.9989   -7.4418    3.9659 H   0  0  0  0  0  0  0  0  0  0  0  0
   -6.2447   -6.5963    3.0950 H   0  0  0  0  0  0  0  0  0  0  0  0
   -7.2270   -6.6040    0.8499 H   0  0  0  0  0  0  0  0  0  0  0  0
   -8.7319   -7.1975    1.5103 H   0  0  0  0  0  0  0  0  0  0  0  0
   -6.2139   -8.5200    1.6525 H   0  0  0  0  0  0  0  0  0  0  0  0
   -6.6348   -6.8799    5.4508 H   0  0  0  0  0  0  0  0  0  0  0  0
   -8.7111   -9.4194    2.6286 H   0  0  0  0  0  0  0  0  0  0  0  0
   -7.3568   -8.2465    6.2419 H   0  0  0  0  0  0  0  0  0  0  0  0
   -8.3154   -0.6718   -1.3112 H   0  0  0  0  0  0  0  0  0  0  0  0
   -6.9612    0.5011    2.3021 H   0  0  0  0  0  0  0  0  0  0  0  0
   -0.0608    1.5623    1.8161 H   0  0  0  0  0  0  0  0  0  0  0  0
   -0.8845    1.3969    0.2840 H   0  0  0  0  0  0  0  0  0  0  0  0
   -1.7082    0.9819    1.7680 H   0  0  0  0  0  0  0  0  0  0  0  0
    5.0299    0.8090   -0.8743 H   0  0  0  0  0  0  0  0  0  0  0  0
    5.0299    0.6650    0.8670 H   0  0  0  0  0  0  0  0  0  0  0  0
    4.8233    3.0985    1.0683 H   0  0  0  0  0  0  0  0  0  0  0  0
    4.8233    3.2426   -0.6730 H   0  0  0  0  0  0  0  0  0  0  0  0
    7.0566    2.0931    0.9852 H   0  0  0  0  0  0  0  0  0  0  0  0
    6.8499    2.6308   -1.9689 H   0  0  0  0  0  0  0  0  0  0  0  0
    6.8499    1.0507   -1.2230 H   0  0  0  0  0  0  0  0  0  0  0  0
    8.2766    2.0561   -1.1398 H   0  0  0  0  0  0  0  0  0  0  0  0
    6.8499    4.5267    1.1865 H   0  0  0  0  0  0  0  0  0  0  0  0
    6.8499    4.6708   -0.5549 H   0  0  0  0  0  0  0  0  0  0  0  0
    8.1562    5.5852   -0.0953 H   0  0  0  0  0  0  0  0  0  0  0  0
   10.9728   10.0308    3.9335 H   0  0  0  0  0  0  0  0  0  0  0  0
   10.6366    9.3792    1.0799 H   0  0  0  0  0  0  0  0  0  0  0  0
    9.4166    7.3763    1.7909 H   0  0  0  0  0  0  0  0  0  0  0  0
   10.6366    7.3392   -0.3342 H   0  0  0  0  0  0  0  0  0  0  0  0
   12.8699    6.3338   -0.4173 H   0  0  0  0  0  0  0  0  0  0  0  0
   12.8699    6.1898    1.3240 H   0  0  0  0  0  0  0  0  0  0  0  0
   12.6632    8.6197   -0.1463 H   0  0  0  0  0  0  0  0  0  0  0  0
   11.9299    6.6136    2.8912 H   0  0  0  0  0  0  0  0  0  0  0  0
   12.7366    8.2835    2.6606 H   0  0  0  0  0  0  0  0  0  0  0  0
    8.7432    8.8266    2.5058 H   0  0  0  0  0  0  0  0  0  0  0  0
  1  2  1  0  0  0  0
  1 76  1  0  0  0  0
  1 77  1  0  0  0  0
  1 78  1  0  0  0  0
  2  3  2  0  0  0  0
  2  6  1  0  0  0  0
  3  4  1  0  0  0  0
  3 59  1  0  0  0  0
  4  5  1  0  0  0  0
  5  6  1  0  0  0  0
  5  9  1  0  0  0  0
  5 79  1  1  0  0  0
  6  7  1  0  0  0  0
  6 80  1  6  0  0  0
  7  8  1  0  0  0  0
  7 21  1  0  0  0  0
  7 58  1  6  0  0  0
  8  9  1  0  0  0  0
  8 10  1  0  0  0  0
  8 81  1  1  0  0  0
  9 82  1  0  0  0  0
  9 83  1  0  0  0  0
 10 11  1  0  0  0  0
 10 19  1  0  0  0  0
 10 84  1  1  0  0  0
 11 12  1  0  0  0  0
 11 85  1  0  0  0  0
 11 86  1  0  0  0  0
 12 13  1  0  0  0  0
 12 87  1  0  0  0  0
 12 88  1  0  0  0  0
 13 14  1  0  0  0  0
 13 18  1  0  0  0  0
 13 89  1  6  0  0  0
 14 15  1  0  0  0  0
 14 90  1  0  0  0  0
 14 91  1  0  0  0  0
 15 16  1  0  0  0  0
 15 24  1  0  0  0  0
 15 92  1  1  0  0  0
 16 17  1  0  0  0  0
 16 93  1  0  0  0  0
 16 94  1  0  0  0  0
 17 18  1  0  0  0  0
 17 95  1  0  0  0  0
 17 96  1  0  0  0  0
 18 19  1  0  0  0  0
 18 23  1  6  0  0  0
 19 20  1  0  0  0  0
 19 97  1  6  0  0  0
 20 21  1  0  0  0  0
 20 98  1  0  0  0  0
 20 99  1  0  0  0  0
 21 22  2  0  0  0  0
 23100  1  0  0  0  0
 23101  1  0  0  0  0
 23102  1  0  0  0  0
 24 25  1  0  0  0  0
 25 26  1  0  0  0  0
 25 30  1  0  0  0  0
 25103  1  6  0  0  0
 26 27  1  0  0  0  0
 26 57  1  0  0  0  0
 26104  1  6  0  0  0
 27 28  1  0  0  0  0
 27 56  1  0  0  0  0
 27105  1  1  0  0  0
 28 29  1  0  0  0  0
 28 33  1  0  0  0  0
 28106  1  6  0  0  0
 29 30  1  0  0  0  0
 29 31  1  0  0  0  0
 29107  1  1  0  0  0
 31 32  1  0  0  0  0
 31108  1  0  0  0  0
 31109  1  0  0  0  0
 32110  1  0  0  0  0
 33 34  1  0  0  0  0
 34 35  1  0  0  0  0
 34 39  1  0  0  0  0
 34111  1  6  0  0  0
 35 36  1  0  0  0  0
 35 44  1  0  0  0  0
 35112  1  1  0  0  0
 36 37  1  0  0  0  0
 36 43  1  0  0  0  0
 36113  1  6  0  0  0
 37 38  1  0  0  0  0
 37 42  1  0  0  0  0
 37114  1  6  0  0  0
 38 39  1  0  0  0  0
 38 40  1  0  0  0  0
 38115  1  6  0  0  0
 40 41  1  0  0  0  0
 40116  1  0  0  0  0
 40117  1  0  0  0  0
 41118  1  0  0  0  0
 42119  1  0  0  0  0
 43120  1  0  0  0  0
 44 45  1  0  0  0  0
 45 46  1  0  0  0  0
 45 50  1  0  0  0  0
 45121  1  6  0  0  0
 46 47  1  0  0  0  0
 46 55  1  0  0  0  0
 46122  1  6  0  0  0
 47 48  1  0  0  0  0
 47 54  1  0  0  0  0
 47123  1  1  0  0  0
 48 49  1  0  0  0  0
 48 53  1  0  0  0  0
 48124  1  6  0  0  0
 49 50  1  0  0  0  0
 49 51  1  0  0  0  0
 49125  1  1  0  0  0
 51 52  1  0  0  0  0
 51126  1  0  0  0  0
 51127  1  0  0  0  0
 52128  1  0  0  0  0
 53129  1  0  0  0  0
 54130  1  0  0  0  0
 55131  1  0  0  0  0
 56132  1  0  0  0  0
 57133  1  0  0  0  0
 58134  1  0  0  0  0
 58135  1  0  0  0  0
 58136  1  0  0  0  0
 59 60  1  0  0  0  0
 59137  1  0  0  0  0
 59138  1  0  0  0  0
 60 61  1  0  0  0  0
 60139  1  0  0  0  0
 60140  1  0  0  0  0
 61 62  1  0  0  0  0
 61 63  1  0  0  0  0
 61141  1  1  0  0  0
 62142  1  0  0  0  0
 62143  1  0  0  0  0
 62144  1  0  0  0  0
 63 64  1  0  0  0  0
 63145  1  0  0  0  0
 63146  1  0  0  0  0
 64 65  1  0  0  0  0
 65 66  1  0  0  0  0
 65 70  1  0  0  0  0
 65147  1  6  0  0  0
 66 67  1  0  0  0  0
 66 75  1  0  0  0  0
 66148  1  1  0  0  0
 67 68  1  0  0  0  0
 67 74  1  0  0  0  0
 67149  1  6  0  0  0
 68 69  1  0  0  0  0
 68 73  1  0  0  0  0
 68150  1  6  0  0  0
 69 70  1  0  0  0  0
 69 71  1  0  0  0  0
 69151  1  6  0  0  0
 71 72  1  0  0  0  0
 71152  1  0  0  0  0
 71153  1  0  0  0  0
 72154  1  0  0  0  0
 73155  1  0  0  0  0
 74156  1  0  0  0  0
 75157  1  0  0  0  0
M  END
$$$$
