
 OpenBabel03102508543D

162170  0  0  1  0  0  0  0  0999 V2000
    2.4743    1.3940   -0.3772 C   0  0  0  0  0  0  0  0  0  0  0  0
    2.4756   -0.0852   -0.0277 C   0  0  1  0  0  0  0  0  0  0  0  0
    6.0012   -5.7444   -2.2956 C   0  0  1  0  0  0  0  0  0  0  0  0
    3.6759   -2.4825   -0.7346 C   0  0  2  0  0  0  0  0  0  0  0  0
    4.7699   -3.2397   -1.4695 C   0  0  0  0  0  0  0  0  0  0  0  0
    4.1462   -4.1141   -2.5451 C   0  0  0  0  0  0  0  0  0  0  0  0
    5.2402   -4.8713   -3.2800 C   0  0  2  0  0  0  0  0  0  0  0  0
    6.1971   -3.8811   -3.9238 C   0  0  0  0  0  0  0  0  0  0  0  0
    6.8208   -3.0068   -2.8482 C   0  0  0  0  0  0  0  0  0  0  0  0
    7.7777   -2.0166   -3.4919 C   0  0  0  0  0  0  0  0  0  0  0  0
   12.1113   -4.4030   -1.9172 C   0  0  0  0  0  0  0  0  0  0  0  0
   11.0173   -3.6458   -1.1823 C   0  0  0  0  0  0  0  0  0  0  0  0
   10.2564   -2.7727   -2.1667 C   0  0  0  0  0  0  0  0  0  0  0  0
    9.1623   -2.0154   -1.4318 C   0  0  0  0  0  0  0  0  0  0  0  0
    8.4014   -1.1423   -2.4163 C   0  0  2  0  0  0  0  0  0  0  0  0
    7.3074   -0.3851   -1.6814 C   0  0  0  0  0  0  0  0  0  0  0  0
    6.3505   -1.3753   -1.0376 C   0  0  2  0  0  0  0  0  0  0  0  0
    5.7268   -2.2496   -2.1132 C   0  0  1  0  0  0  0  0  0  0  0  0
    4.7699   -3.2398   -1.4695 C   0  0  0  0  0  0  0  0  0  0  0  0
    5.0159   -1.4339   -3.0329 O   0  0  0  0  0  0  0  0  0  0  0  0
    5.8909   -0.4996   -3.6476 C   0  0  1  0  0  0  0  0  0  0  0  0
    9.2471    0.7095   -7.2586 C   0  0  1  0  0  0  0  0  0  0  0  0
    8.1153    1.4533   -6.5687 C   0  0  2  0  0  0  0  0  0  0  0  0
    7.1787    0.4531   -5.9107 C   0  0  2  0  0  0  0  0  0  0  0  0
    6.0468    1.1969   -5.2207 C   0  0  2  0  0  0  0  0  0  0  0  0
    5.1719    0.2626   -4.6060 O   0  0  0  0  0  0  0  0  0  0  0  0
    5.2772    2.0128   -6.2465 C   0  0  0  0  0  0  0  0  0  0  0  0
    6.1521    2.9471   -6.8612 O   0  0  0  0  0  0  0  0  0  0  0  0
    7.8977   -0.3091   -4.9523 O   0  0  0  0  0  0  0  0  0  0  0  0
    8.9551   -1.0039   -5.5969 C   0  0  1  0  0  0  0  0  0  0  0  0
   13.7365   -1.2045   -7.2891 C   0  0  1  0  0  0  0  0  0  0  0  0
   12.7999   -2.2047   -6.6311 C   0  0  2  0  0  0  0  0  0  0  0  0
   11.6680   -1.4608   -5.9411 C   0  0  1  0  0  0  0  0  0  0  0  0
   10.7315   -2.4610   -5.2831 C   0  0  2  0  0  0  0  0  0  0  0  0
    9.6741   -1.7661   -4.6385 O   0  0  0  0  0  0  0  0  0  0  0  0
   11.5011   -3.2768   -4.2572 C   0  0  0  0  0  0  0  0  0  0  0  0
   12.5585   -3.9717   -4.9018 O   0  0  0  0  0  0  0  0  0  0  0  0
   12.2047   -0.5938   -4.9528 O   0  0  0  0  0  0  0  0  0  0  0  0
   13.5189   -2.9668   -5.6727 O   0  0  0  0  0  0  0  0  0  0  0  0
   13.0174   -0.4423   -8.2474 O   0  0  0  0  0  0  0  0  0  0  0  0
   13.8924    0.4920   -8.8621 C   0  0  1  0  0  0  0  0  0  0  0  0
   17.2486    1.7010  -12.4732 C   0  0  1  0  0  0  0  0  0  0  0  0
   16.1167    2.4448  -11.7832 C   0  0  2  0  0  0  0  0  0  0  0  0
   15.1802    1.4447  -11.1252 C   0  0  1  0  0  0  0  0  0  0  0  0
   14.0483    2.1885  -10.4352 C   0  0  2  0  0  0  0  0  0  0  0  0
   13.1734    1.2542   -9.8205 O   0  0  0  0  0  0  0  0  0  0  0  0
   13.2786    3.0044  -11.4611 C   0  0  0  0  0  0  0  0  0  0  0  0
   14.1536    3.9387  -12.0758 O   0  0  0  0  0  0  0  0  0  0  0  0
   14.6436    0.5777  -12.1135 O   0  0  0  0  0  0  0  0  0  0  0  0
   15.3977    3.2070  -12.7416 O   0  0  0  0  0  0  0  0  0  0  0  0
   17.9676    0.9389  -11.5148 O   0  0  0  0  0  0  0  0  0  0  0  0
    7.3962    2.2154   -7.5270 O   0  0  0  0  0  0  0  0  0  0  0  0
    9.9661   -0.0527   -6.3003 O   0  0  0  0  0  0  0  0  0  0  0  0
    5.3285   -0.6679   -0.3511 O   0  0  0  0  0  0  0  0  0  0  0  0
    9.3583   -0.1522   -3.0600 C   0  0  0  0  0  0  0  0  0  0  0  0
    4.6165   -5.7456   -4.3557 C   0  0  0  0  0  0  0  0  0  0  0  0
    4.2586   -1.6657    0.2702 O   0  0  0  0  0  0  0  0  0  0  0  0
    3.2365   -0.9583    0.9568 C   0  0  2  0  0  0  0  0  0  0  0  0
    1.9131   -1.4954    1.4768 C   0  0  0  0  0  0  0  0  0  0  0  0
    1.9595   -2.7813    2.2859 C   0  0  0  0  0  0  0  0  0  0  0  0
    0.5472   -3.1852    2.6769 C   0  0  0  0  0  0  0  0  0  0  0  0
   -0.2824   -3.4055    1.4224 C   0  0  0  0  0  0  0  0  0  0  0  0
    0.5936   -4.4711    3.4860 C   0  0  0  0  0  0  0  0  0  0  0  0
   -0.7257   -4.8484    3.8513 O   0  0  0  0  0  0  0  0  0  0  0  0
   -0.6824   -6.0497    4.6072 C   0  0  1  0  0  0  0  0  0  0  0  0
   -0.2527   -8.4734    9.0463 C   0  0  1  0  0  0  0  0  0  0  0  0
   -1.0823   -8.6938    7.7919 C   0  0  2  0  0  0  0  0  0  0  0  0
   -1.1287   -7.4079    6.9828 C   0  0  1  0  0  0  0  0  0  0  0  0
   -1.9583   -7.6282    5.7283 C   0  0  2  0  0  0  0  0  0  0  0  0
   -2.0017   -6.4269    4.9724 O   0  0  0  0  0  0  0  0  0  0  0  0
   -3.3706   -8.0321    6.1193 C   0  0  0  0  0  0  0  0  0  0  0  0
   -3.3272   -9.2334    6.8752 O   0  0  0  0  0  0  0  0  0  0  0  0
   -1.7164   -6.3780    7.7640 O   0  0  0  0  0  0  0  0  0  0  0  0
   -2.4017   -9.0710    8.1572 O   0  0  0  0  0  0  0  0  0  0  0  0
    1.0666   -8.0961    8.6811 O   0  0  0  0  0  0  0  0  0  0  0  0
    3.4506   -0.8534    2.3566 O   0  0  0  0  0  0  0  0  0  0  0  0
    1.7594    1.5768   -1.1521 H   0  0  0  0  0  0  0  0  0  0  0  0
    3.4480    1.6815   -0.7153 H   0  0  0  0  0  0  0  0  0  0  0  0
    2.2147    1.9651    0.4896 H   0  0  0  0  0  0  0  0  0  0  0  0
    1.4876    0.3145   -0.1221 H   0  0  0  0  0  0  0  0  0  0  0  0
    6.6273   -6.6119   -2.3108 H   0  0  0  0  0  0  0  0  0  0  0  0
    2.6881   -2.0795   -0.6525 H   0  0  0  0  0  0  0  0  0  0  0  0
    5.3056   -3.8544   -0.7765 H   0  0  0  0  0  0  0  0  0  0  0  0
    5.4435   -2.5427   -1.9227 H   0  0  0  0  0  0  0  0  0  0  0  0
    3.0871   -4.1344   -2.6959 H   0  0  0  0  0  0  0  0  0  0  0  0
    5.6615   -3.2665   -4.6168 H   0  0  0  0  0  0  0  0  0  0  0  0
    6.9673   -4.4142   -4.4411 H   0  0  0  0  0  0  0  0  0  0  0  0
    7.3565   -3.6214   -2.1552 H   0  0  0  0  0  0  0  0  0  0  0  0
    6.0507   -2.4738   -2.3308 H   0  0  0  0  0  0  0  0  0  0  0  0
    7.3786   -1.6692   -4.4219 H   0  0  0  0  0  0  0  0  0  0  0  0
   13.1076   -4.7912   -1.9569 H   0  0  0  0  0  0  0  0  0  0  0  0
   11.4564   -3.0303   -0.4251 H   0  0  0  0  0  0  0  0  0  0  0  0
   10.3437   -4.3428   -0.7291 H   0  0  0  0  0  0  0  0  0  0  0  0
    9.8173   -3.3881   -2.9239 H   0  0  0  0  0  0  0  0  0  0  0  0
   10.9300   -2.0756   -2.6199 H   0  0  0  0  0  0  0  0  0  0  0  0
    9.7416   -1.8657   -0.5447 H   0  0  0  0  0  0  0  0  0  0  0  0
    6.7717    0.2295   -2.3743 H   0  0  0  0  0  0  0  0  0  0  0  0
    7.7465    0.2304   -0.9242 H   0  0  0  0  0  0  0  0  0  0  0  0
    6.8862   -1.9899   -0.3446 H   0  0  0  0  0  0  0  0  0  0  0  0
    6.4969   -2.7826   -2.6306 H   0  0  0  0  0  0  0  0  0  0  0  0
    4.4137   -4.1154   -1.9707 H   0  0  0  0  0  0  0  0  0  0  0  0
    3.8959   -3.3102   -0.8564 H   0  0  0  0  0  0  0  0  0  0  0  0
    6.3541   -0.6170   -2.6903 H   0  0  0  0  0  0  0  0  0  0  0  0
    9.7125    0.8572   -8.2107 H   0  0  0  0  0  0  0  0  0  0  0  0
    8.5196    2.1066   -5.8240 H   0  0  0  0  0  0  0  0  0  0  0  0
    6.7743   -0.2002   -6.6554 H   0  0  0  0  0  0  0  0  0  0  0  0
    6.4512    1.8503   -4.4760 H   0  0  0  0  0  0  0  0  0  0  0  0
    4.4804    2.5364   -5.7608 H   0  0  0  0  0  0  0  0  0  0  0  0
    4.8728    1.3595   -6.9912 H   0  0  0  0  0  0  0  0  0  0  0  0
    6.5187    3.5394   -6.1861 H   0  0  0  0  0  0  0  0  0  0  0  0
    8.2485   -0.9167   -6.3956 H   0  0  0  0  0  0  0  0  0  0  0  0
   14.8046   -1.1622   -7.3363 H   0  0  0  0  0  0  0  0  0  0  0  0
   12.3955   -2.8580   -7.3758 H   0  0  0  0  0  0  0  0  0  0  0  0
   11.1262   -0.8865   -6.6632 H   0  0  0  0  0  0  0  0  0  0  0  0
   10.3271   -3.1143   -6.0278 H   0  0  0  0  0  0  0  0  0  0  0  0
   10.8418   -3.9809   -3.7941 H   0  0  0  0  0  0  0  0  0  0  0  0
   11.9055   -2.6235   -3.5125 H   0  0  0  0  0  0  0  0  0  0  0  0
   12.1919   -4.5640   -5.5769 H   0  0  0  0  0  0  0  0  0  0  0  0
   12.6958   -1.1145   -4.2982 H   0  0  0  0  0  0  0  0  0  0  0  0
   13.8855   -2.3745   -4.9976 H   0  0  0  0  0  0  0  0  0  0  0  0
   14.3556    0.3746   -7.9048 H   0  0  0  0  0  0  0  0  0  0  0  0
   17.7139    1.8488  -13.4253 H   0  0  0  0  0  0  0  0  0  0  0  0
   16.5211    3.0982  -11.0385 H   0  0  0  0  0  0  0  0  0  0  0  0
   15.7220    0.8704  -10.4030 H   0  0  0  0  0  0  0  0  0  0  0  0
   14.4527    2.8419   -9.6905 H   0  0  0  0  0  0  0  0  0  0  0  0
   12.4819    3.5280  -10.9754 H   0  0  0  0  0  0  0  0  0  0  0  0
   12.8743    2.3510  -12.2058 H   0  0  0  0  0  0  0  0  0  0  0  0
   14.5202    4.5310  -11.4007 H   0  0  0  0  0  0  0  0  0  0  0  0
   14.1524    1.0983  -12.7682 H   0  0  0  0  0  0  0  0  0  0  0  0
   15.0311    2.6147  -13.4167 H   0  0  0  0  0  0  0  0  0  0  0  0
   17.4485    0.8740  -10.6979 H   0  0  0  0  0  0  0  0  0  0  0  0
    7.0297    1.6232   -8.2021 H   0  0  0  0  0  0  0  0  0  0  0  0
    9.4471   -0.1176   -5.4834 H   0  0  0  0  0  0  0  0  0  0  0  0
    4.8429   -0.1107   -0.9793 H   0  0  0  0  0  0  0  0  0  0  0  0
   10.1284   -0.6852   -3.5773 H   0  0  0  0  0  0  0  0  0  0  0  0
    9.7974    0.4633   -2.3028 H   0  0  0  0  0  0  0  0  0  0  0  0
    8.8226    0.4624   -3.7530 H   0  0  0  0  0  0  0  0  0  0  0  0
    3.9429   -6.4426   -3.9025 H   0  0  0  0  0  0  0  0  0  0  0  0
    5.3867   -6.2786   -4.8730 H   0  0  0  0  0  0  0  0  0  0  0  0
    4.0809   -5.1310   -5.0487 H   0  0  0  0  0  0  0  0  0  0  0  0
    1.4794   -0.7392    2.0973 H   0  0  0  0  0  0  0  0  0  0  0  0
    1.3490   -1.7389    0.6008 H   0  0  0  0  0  0  0  0  0  0  0  0
    2.5435   -2.6262    3.1689 H   0  0  0  0  0  0  0  0  0  0  0  0
    2.4023   -3.5574    1.6972 H   0  0  0  0  0  0  0  0  0  0  0  0
    0.1044   -2.4091    3.2656 H   0  0  0  0  0  0  0  0  0  0  0  0
    0.1605   -4.1816    0.8337 H   0  0  0  0  0  0  0  0  0  0  0  0
   -0.3150   -2.5003    0.8528 H   0  0  0  0  0  0  0  0  0  0  0  0
   -1.2765   -3.6898    1.6977 H   0  0  0  0  0  0  0  0  0  0  0  0
    1.1776   -4.3159    4.3691 H   0  0  0  0  0  0  0  0  0  0  0  0
    1.0365   -5.2471    2.8973 H   0  0  0  0  0  0  0  0  0  0  0  0
    0.1963   -6.1529    4.0053 H   0  0  0  0  0  0  0  0  0  0  0  0
   -0.4073   -8.7829   10.0589 H   0  0  0  0  0  0  0  0  0  0  0  0
   -0.6395   -9.4698    7.2032 H   0  0  0  0  0  0  0  0  0  0  0  0
   -0.1346   -7.1236    6.7075 H   0  0  0  0  0  0  0  0  0  0  0  0
   -1.5155   -8.4043    5.1396 H   0  0  0  0  0  0  0  0  0  0  0  0
   -3.9546   -8.1872    5.2363 H   0  0  0  0  0  0  0  0  0  0  0  0
   -3.8134   -7.2560    6.7080 H   0  0  0  0  0  0  0  0  0  0  0  0
   -2.9258   -9.9369    6.3415 H   0  0  0  0  0  0  0  0  0  0  0  0
   -2.6176   -6.6357    8.0135 H   0  0  0  0  0  0  0  0  0  0  0  0
   -2.8031   -8.3675    8.6908 H   0  0  0  0  0  0  0  0  0  0  0  0
    1.0818   -7.8372    7.7464 H   0  0  0  0  0  0  0  0  0  0  0  0
    4.3340   -0.4886    2.5222 H   0  0  0  0  0  0  0  0  0  0  0  0
  1 77  1  0  0  0  0
  1 78  1  0  0  0  0
  1 79  1  0  0  0  0
  2  3  1  0  0  0  0
  2 58  1  0  0  0  0
  2  1  1  0  0  0  0
  2 80  1  1  0  0  0
  3  4  1  0  0  0  0
  3  7  1  0  0  0  0
  3 81  1  1  0  0  0
  4  5  1  0  0  0  0
  4 57  1  0  0  0  0
  4 82  1  6  0  0  0
  5  6  1  0  0  0  0
  5 83  1  0  0  0  0
  5 84  1  0  0  0  0
  6  7  1  0  0  0  0
  6 11  1  0  0  0  0
  6 85  1  0  0  0  0
  7  8  1  0  0  0  0
  7 56  1  1  0  0  0
  8  9  1  0  0  0  0
  8 86  1  0  0  0  0
  8 87  1  0  0  0  0
  9 10  1  0  0  0  0
  9 88  1  0  0  0  0
  9 89  1  0  0  0  0
 10 11  1  0  0  0  0
 10 15  1  0  0  0  0
 10 90  1  0  0  0  0
 11 12  1  0  0  0  0
 11 91  1  0  0  0  0
 12 13  1  0  0  0  0
 12 92  1  0  0  0  0
 12 93  1  0  0  0  0
 13 14  1  0  0  0  0
 13 94  1  0  0  0  0
 13 95  1  0  0  0  0
 14 15  1  0  0  0  0
 14 19  1  0  0  0  0
 14 96  1  0  0  0  0
 15 16  1  0  0  0  0
 15 55  1  6  0  0  0
 16 17  1  0  0  0  0
 16 97  1  0  0  0  0
 16 98  1  0  0  0  0
 17 18  1  0  0  0  0
 17 54  1  0  0  0  0
 17 99  1  1  0  0  0
 18 19  1  0  0  0  0
 18 20  1  0  0  0  0
 18100  1  6  0  0  0
 19101  1  0  0  0  0
 19102  1  0  0  0  0
 20 21  1  0  0  0  0
 21 22  1  0  0  0  0
 21 26  1  0  0  0  0
 21103  1  1  0  0  0
 22 23  1  0  0  0  0
 22 53  1  0  0  0  0
 22104  1  6  0  0  0
 23 24  1  0  0  0  0
 23 52  1  0  0  0  0
 23105  1  1  0  0  0
 24 25  1  0  0  0  0
 24 29  1  0  0  0  0
 24106  1  6  0  0  0
 25 26  1  0  0  0  0
 25 27  1  0  0  0  0
 25107  1  1  0  0  0
 27 28  1  0  0  0  0
 27108  1  0  0  0  0
 27109  1  0  0  0  0
 28110  1  0  0  0  0
 29 30  1  0  0  0  0
 30 31  1  0  0  0  0
 30 35  1  0  0  0  0
 30111  1  6  0  0  0
 31 32  1  0  0  0  0
 31 40  1  0  0  0  0
 31112  1  1  0  0  0
 32 33  1  0  0  0  0
 32 39  1  0  0  0  0
 32113  1  6  0  0  0
 33 34  1  0  0  0  0
 33 38  1  0  0  0  0
 33114  1  6  0  0  0
 34 35  1  0  0  0  0
 34 36  1  0  0  0  0
 34115  1  6  0  0  0
 36 37  1  0  0  0  0
 36116  1  0  0  0  0
 36117  1  0  0  0  0
 37118  1  0  0  0  0
 38119  1  0  0  0  0
 39120  1  0  0  0  0
 40 41  1  0  0  0  0
 41 42  1  0  0  0  0
 41 46  1  0  0  0  0
 41121  1  1  0  0  0
 42 43  1  0  0  0  0
 42 51  1  0  0  0  0
 42122  1  6  0  0  0
 43 44  1  0  0  0  0
 43 50  1  0  0  0  0
 43123  1  1  0  0  0
 44 45  1  0  0  0  0
 44 49  1  0  0  0  0
 44124  1  1  0  0  0
 45 46  1  0  0  0  0
 45 47  1  0  0  0  0
 45125  1  1  0  0  0
 47 48  1  0  0  0  0
 47126  1  0  0  0  0
 47127  1  0  0  0  0
 48128  1  0  0  0  0
 49129  1  0  0  0  0
 50130  1  0  0  0  0
 51131  1  0  0  0  0
 52132  1  0  0  0  0
 53133  1  0  0  0  0
 54134  1  0  0  0  0
 55135  1  0  0  0  0
 55136  1  0  0  0  0
 55137  1  0  0  0  0
 56138  1  0  0  0  0
 56139  1  0  0  0  0
 56140  1  0  0  0  0
 57 58  1  0  0  0  0
 58 76  1  1  0  0  0
 58 59  1  0  0  0  0
 59 60  1  0  0  0  0
 59141  1  0  0  0  0
 59142  1  0  0  0  0
 60 61  1  0  0  0  0
 60143  1  0  0  0  0
 60144  1  0  0  0  0
 61 62  1  0  0  0  0
 61 63  1  0  0  0  0
 61145  1  0  0  0  0
 62146  1  0  0  0  0
 62147  1  0  0  0  0
 62148  1  0  0  0  0
 63 64  1  0  0  0  0
 63149  1  0  0  0  0
 63150  1  0  0  0  0
 64 65  1  0  0  0  0
 65 66  1  0  0  0  0
 65 70  1  0  0  0  0
 65151  1  6  0  0  0
 66 67  1  0  0  0  0
 66 75  1  0  0  0  0
 66152  1  1  0  0  0
 67 68  1  0  0  0  0
 67 74  1  0  0  0  0
 67153  1  6  0  0  0
 68 69  1  0  0  0  0
 68 73  1  0  0  0  0
 68154  1  6  0  0  0
 69 70  1  0  0  0  0
 69 71  1  0  0  0  0
 69155  1  6  0  0  0
 71 72  1  0  0  0  0
 71156  1  0  0  0  0
 71157  1  0  0  0  0
 72158  1  0  0  0  0
 73159  1  0  0  0  0
 74160  1  0  0  0  0
 75161  1  0  0  0  0
 76162  1  0  0  0  0
M  END
$$$$
