
 OpenBabel03102508543D

170180  0  0  1  0  0  0  0  0999 V2000
    9.4839    7.5139  -13.2081 C   0  0  0  0  0  0  0  0  0  0  0  0
    9.4309    7.8471  -14.6901 C   0  0  1  0  0  0  0  0  0  0  0  0
   12.2499    6.1268  -17.6393 C   0  0  0  0  0  0  0  0  0  0  0  0
   11.1621    5.1184  -17.3075 C   0  0  0  0  0  0  0  0  0  0  0  0
    9.8031    5.7094  -17.6456 C   0  0  2  0  0  0  0  0  0  0  0  0
    9.7500    6.0426  -19.1276 C   0  0  2  0  0  0  0  0  0  0  0  0
   10.8379    7.0511  -19.4595 C   0  0  1  0  0  0  0  0  0  0  0  0
    4.7943   -1.9320  -10.8704 C   0  0  1  0  0  0  0  0  0  0  0  0
    8.7868    4.7673  -17.3356 O   0  0  0  0  0  0  0  0  0  0  0  0
    4.7412   -1.5987  -12.3524 C   0  0  0  0  0  0  0  0  0  0  0  0
    5.8291   -0.5903  -12.6842 C   0  0  2  0  0  0  0  0  0  0  0  0
   10.6198    8.3173  -18.6473 C   0  0  2  0  0  0  0  0  0  0  0  0
   10.6728    7.9840  -17.1652 C   0  0  0  0  0  0  0  0  0  0  0  0
    9.5850    6.9756  -16.8334 C   0  0  0  0  0  0  0  0  0  0  0  0
    9.6381    6.6423  -15.3513 C   0  0  1  0  0  0  0  0  0  0  0  0
    5.7760   -0.2570  -14.1663 C   0  0  1  0  0  0  0  0  0  0  0  0
    6.8638    0.7514  -14.4981 C   0  0  0  0  0  0  0  0  0  0  0  0
    6.8107    1.0847  -15.9802 C   0  0  0  0  0  0  0  0  0  0  0  0
    7.8986    2.0931  -16.3120 C   0  0  2  0  0  0  0  0  0  0  0  0
    8.5502    5.6339  -15.0195 C   0  0  2  0  0  0  0  0  0  0  0  0
    8.7683    4.3677  -15.8317 C   0  0  0  0  0  0  0  0  0  0  0  0
    8.7153    4.7010  -17.3137 C   0  0  0  0  0  0  0  0  0  0  0  0
    8.9333    3.4348  -18.1259 C   0  0  1  0  0  0  0  0  0  0  0  0
    7.8455    2.4264  -17.7941 C   0  0  0  0  0  0  0  0  0  0  0  0
    8.8838    3.7461  -19.5105 O   0  0  0  0  0  0  0  0  0  0  0  0
    9.0875    2.5632  -20.2692 C   0  0  1  0  0  0  0  0  0  0  0  0
    7.2841   -1.5914  -22.5610 C   0  0  1  0  0  0  0  0  0  0  0  0
    8.3719   -0.5829  -22.8928 C   0  0  2  0  0  0  0  0  0  0  0  0
    8.1538    0.6833  -22.0807 C   0  0  2  0  0  0  0  0  0  0  0  0
    9.2417    1.6917  -22.4125 C   0  0  2  0  0  0  0  0  0  0  0  0
    9.0379    2.8746  -21.6538 O   0  0  0  0  0  0  0  0  0  0  0  0
    9.1886    2.0249  -23.8946 C   0  0  0  0  0  0  0  0  0  0  0  0
    9.3923    0.8421  -24.6533 O   0  0  0  0  0  0  0  0  0  0  0  0
    8.2034    0.3719  -20.6961 O   0  0  0  0  0  0  0  0  0  0  0  0
    7.1871   -0.5702  -20.3861 C   0  0  1  0  0  0  0  0  0  0  0  0
    5.5688   -5.3644  -19.9841 C   0  0  1  0  0  0  0  0  0  0  0  0
    5.3507   -4.0982  -19.1719 C   0  0  2  0  0  0  0  0  0  0  0  0
    6.4385   -3.0898  -19.5037 C   0  0  1  0  0  0  0  0  0  0  0  0
    6.2205   -1.8236  -18.6916 C   0  0  2  0  0  0  0  0  0  0  0  0
    7.2367   -0.8815  -19.0015 O   0  0  0  0  0  0  0  0  0  0  0  0
    6.2735   -2.1568  -17.2095 C   0  0  0  0  0  0  0  0  0  0  0  0
    5.2573   -3.0989  -16.8995 O   0  0  0  0  0  0  0  0  0  0  0  0
    7.7081   -3.6419  -19.1879 O   0  0  0  0  0  0  0  0  0  0  0  0
    5.4003   -4.4095  -17.7873 O   0  0  0  0  0  0  0  0  0  0  0  0
    4.4533   -5.4483  -17.5861 C   0  0  1  0  0  0  0  0  0  0  0  0
    2.8826  -10.6734  -18.9099 C   0  0  1  0  0  0  0  0  0  0  0  0
    3.2896   -9.2090  -18.9266 C   0  0  2  0  0  0  0  0  0  0  0  0
    4.6389   -9.0504  -18.2451 C   0  0  1  0  0  0  0  0  0  0  0  0
    5.0459   -7.5860  -18.2617 C   0  0  0  0  0  0  0  0  0  0  0  0
    4.0731   -6.8164  -17.5705 O   0  0  0  0  0  0  0  0  0  0  0  0
    4.5465   -9.5007  -16.9015 O   0  0  0  0  0  0  0  0  0  0  0  0
    2.3168   -8.4395  -18.2354 O   0  0  0  0  0  0  0  0  0  0  0  0
    3.8554  -11.4430  -19.6012 O   0  0  0  0  0  0  0  0  0  0  0  0
    5.5192   -5.0530  -21.3686 O   0  0  0  0  0  0  0  0  0  0  0  0
    5.7306   -6.2316  -22.1319 C   0  0  1  0  0  0  0  0  0  0  0  0
    3.9256  -11.4058  -23.3531 C   0  0  1  0  0  0  0  0  0  0  0  0
    4.4164  -10.1404  -22.6687 C   0  0  2  0  0  0  0  0  0  0  0  0
    3.4756   -8.9915  -22.9931 C   0  0  1  0  0  0  0  0  0  0  0  0
    3.9664   -7.7261  -22.3087 C   0  0  0  0  0  0  0  0  0  0  0  0
    5.2721   -7.4138  -22.7713 O   0  0  0  0  0  0  0  0  0  0  0  0
    3.4439   -8.7879  -24.3980 O   0  0  0  0  0  0  0  0  0  0  0  0
    5.7221   -9.8281  -23.1313 O   0  0  0  0  0  0  0  0  0  0  0  0
    2.6200  -11.7182  -22.8905 O   0  0  0  0  0  0  0  0  0  0  0  0
    8.3223   -0.2716  -24.2774 O   0  0  0  0  0  0  0  0  0  0  0  0
    7.3337   -1.9027  -21.1764 O   0  0  0  0  0  0  0  0  0  0  0  0
    6.3174   -2.8448  -20.8664 C   0  0  1  0  0  0  0  0  0  0  0  0
    4.6991   -7.6390  -20.4644 C   0  0  1  0  0  0  0  0  0  0  0  0
    4.4810   -6.3728  -19.6522 C   0  0  1  0  0  0  0  0  0  0  0  0
    5.5688   -5.3644  -19.9841 C   0  0  2  0  0  0  0  0  0  0  0  0
    5.3507   -4.0982  -19.1719 C   0  0  1  0  0  0  0  0  0  0  0  0
    6.3670   -3.1561  -19.4819 O   0  0  0  0  0  0  0  0  0  0  0  0
    3.9918   -3.5072  -19.5100 C   0  0  0  0  0  0  0  0  0  0  0  0
    5.5192   -5.0530  -21.3686 O   0  0  0  0  0  0  0  0  0  0  0  0
    3.2114   -5.8207  -19.9680 O   0  0  0  0  0  0  0  0  0  0  0  0
    4.6495   -7.3277  -21.8490 O   0  0  0  0  0  0  0  0  0  0  0  0
    8.6033    5.3006  -13.5375 C   0  0  0  0  0  0  0  0  0  0  0  0
   11.7076    9.3257  -18.9791 C   0  0  0  0  0  0  0  0  0  0  0  0
    8.3911    6.6337  -19.4657 C   0  0  0  0  0  0  0  0  0  0  0  0
    9.5994    6.8923  -16.8868 O   0  0  0  0  0  0  0  0  0  0  0  0
    9.6489    6.5809  -15.5023 C   0  0  0  0  0  0  0  0  0  0  0  0
    9.3304    8.4052  -12.6363 H   0  0  0  0  0  0  0  0  0  0  0  0
   10.4406    7.0978  -12.9701 H   0  0  0  0  0  0  0  0  0  0  0  0
    8.7182    6.8040  -12.9745 H   0  0  0  0  0  0  0  0  0  0  0  0
    8.9088    8.7699  -14.5458 H   0  0  0  0  0  0  0  0  0  0  0  0
   13.2495    5.9163  -17.3211 H   0  0  0  0  0  0  0  0  0  0  0  0
   12.5839    6.5036  -18.5834 H   0  0  0  0  0  0  0  0  0  0  0  0
   11.1994    4.8838  -16.2642 H   0  0  0  0  0  0  0  0  0  0  0  0
   11.3156    4.2270  -17.8792 H   0  0  0  0  0  0  0  0  0  0  0  0
    9.9035    5.1513  -19.6993 H   0  0  0  0  0  0  0  0  0  0  0  0
   11.5495    7.3148  -20.2137 H   0  0  0  0  0  0  0  0  0  0  0  0
    4.4924   -2.5120  -10.0234 H   0  0  0  0  0  0  0  0  0  0  0  0
    3.7846   -1.1827  -12.5904 H   0  0  0  0  0  0  0  0  0  0  0  0
    4.8947   -2.4900  -12.9241 H   0  0  0  0  0  0  0  0  0  0  0  0
    6.1011   -0.8400  -11.6800 H   0  0  0  0  0  0  0  0  0  0  0  0
   10.5193    8.8753  -16.5935 H   0  0  0  0  0  0  0  0  0  0  0  0
   11.6295    7.5680  -16.9272 H   0  0  0  0  0  0  0  0  0  0  0  0
    9.7385    6.0842  -17.4051 H   0  0  0  0  0  0  0  0  0  0  0  0
    8.6284    7.3916  -17.0714 H   0  0  0  0  0  0  0  0  0  0  0  0
   10.3337    7.3794  -15.0082 H   0  0  0  0  0  0  0  0  0  0  0  0
    5.0804   -0.9941  -14.5094 H   0  0  0  0  0  0  0  0  0  0  0  0
    7.8205    0.3354  -14.2601 H   0  0  0  0  0  0  0  0  0  0  0  0
    6.7103    1.6427  -13.9264 H   0  0  0  0  0  0  0  0  0  0  0  0
    5.8541    1.5007  -16.2182 H   0  0  0  0  0  0  0  0  0  0  0  0
    6.9643    0.1933  -16.5519 H   0  0  0  0  0  0  0  0  0  0  0  0
    8.6184    1.4958  -15.7924 H   0  0  0  0  0  0  0  0  0  0  0  0
    8.0025    3.6578  -15.5981 H   0  0  0  0  0  0  0  0  0  0  0  0
    9.7250    3.9517  -15.5937 H   0  0  0  0  0  0  0  0  0  0  0  0
    9.4810    5.4109  -17.5473 H   0  0  0  0  0  0  0  0  0  0  0  0
    7.7586    5.1170  -17.5517 H   0  0  0  0  0  0  0  0  0  0  0  0
    9.8900    3.0187  -17.8879 H   0  0  0  0  0  0  0  0  0  0  0  0
    7.9990    1.5350  -18.3658 H   0  0  0  0  0  0  0  0  0  0  0  0
    6.8889    2.8424  -18.0321 H   0  0  0  0  0  0  0  0  0  0  0  0
    9.6234    2.3285  -19.3733 H   0  0  0  0  0  0  0  0  0  0  0  0
    6.7119   -2.2446  -23.1861 H   0  0  0  0  0  0  0  0  0  0  0  0
    9.3285   -0.9990  -22.6548 H   0  0  0  0  0  0  0  0  0  0  0  0
    7.1972    1.0993  -22.3187 H   0  0  0  0  0  0  0  0  0  0  0  0
   10.1983    1.2756  -22.1745 H   0  0  0  0  0  0  0  0  0  0  0  0
    9.9544    2.7348  -24.1281 H   0  0  0  0  0  0  0  0  0  0  0  0
    8.2320    2.4410  -24.1325 H   0  0  0  0  0  0  0  0  0  0  0  0
   10.2596    0.4649  -24.4375 H   0  0  0  0  0  0  0  0  0  0  0  0
    6.7536   -0.0678  -21.2255 H   0  0  0  0  0  0  0  0  0  0  0  0
    5.4961   -6.3975  -19.7151 H   0  0  0  0  0  0  0  0  0  0  0  0
    4.3941   -3.6821  -19.4099 H   0  0  0  0  0  0  0  0  0  0  0  0
    6.4012   -2.8552  -20.5470 H   0  0  0  0  0  0  0  0  0  0  0  0
    5.2638   -1.4075  -18.9295 H   0  0  0  0  0  0  0  0  0  0  0  0
    6.1200   -1.2655  -16.6378 H   0  0  0  0  0  0  0  0  0  0  0  0
    7.2302   -2.5729  -16.9715 H   0  0  0  0  0  0  0  0  0  0  0  0
    4.3900   -2.7218  -17.1152 H   0  0  0  0  0  0  0  0  0  0  0  0
    7.7420   -3.8546  -18.2421 H   0  0  0  0  0  0  0  0  0  0  0  0
    4.3490   -4.4327  -17.2658 H   0  0  0  0  0  0  0  0  0  0  0  0
    2.1690  -11.4562  -18.7583 H   0  0  0  0  0  0  0  0  0  0  0  0
    3.3593   -8.8697  -19.9390 H   0  0  0  0  0  0  0  0  0  0  0  0
    5.3720   -9.6302  -18.7659 H   0  0  0  0  0  0  0  0  0  0  0  0
    5.1156   -7.2466  -19.2741 H   0  0  0  0  0  0  0  0  0  0  0  0
    5.9958   -7.4743  -17.7820 H   0  0  0  0  0  0  0  0  0  0  0  0
    3.8819   -8.9750  -16.4293 H   0  0  0  0  0  0  0  0  0  0  0  0
    2.2536   -8.7471  -17.3176 H   0  0  0  0  0  0  0  0  0  0  0  0
    4.6102  -10.8788  -19.8312 H   0  0  0  0  0  0  0  0  0  0  0  0
    6.4236   -5.4243  -22.0181 H   0  0  0  0  0  0  0  0  0  0  0  0
    4.0849  -12.2939  -23.9282 H   0  0  0  0  0  0  0  0  0  0  0  0
    4.4403  -10.2939  -21.6100 H   0  0  0  0  0  0  0  0  0  0  0  0
    2.4918   -9.2269  -22.6445 H   0  0  0  0  0  0  0  0  0  0  0  0
    3.9903   -7.8795  -21.2500 H   0  0  0  0  0  0  0  0  0  0  0  0
    3.3041   -6.9173  -22.5370 H   0  0  0  0  0  0  0  0  0  0  0  0
    4.3358   -8.5745  -24.7140 H   0  0  0  0  0  0  0  0  0  0  0  0
    5.7005   -9.6890  -24.0910 H   0  0  0  0  0  0  0  0  0  0  0  0
    2.2951  -10.9975  -22.3283 H   0  0  0  0  0  0  0  0  0  0  0  0
    7.4551    0.1056  -24.4931 H   0  0  0  0  0  0  0  0  0  0  0  0
    5.8839   -2.3424  -21.7058 H   0  0  0  0  0  0  0  0  0  0  0  0
    4.6264   -8.6721  -20.1954 H   0  0  0  0  0  0  0  0  0  0  0  0
    4.5183   -6.6074  -18.6089 H   0  0  0  0  0  0  0  0  0  0  0  0
    6.5254   -5.7804  -19.7461 H   0  0  0  0  0  0  0  0  0  0  0  0
    5.3881   -4.3328  -18.1286 H   0  0  0  0  0  0  0  0  0  0  0  0
    3.9544   -3.2726  -20.5533 H   0  0  0  0  0  0  0  0  0  0  0  0
    3.8382   -2.6159  -18.9382 H   0  0  0  0  0  0  0  0  0  0  0  0
    3.2260   -4.2171  -19.2764 H   0  0  0  0  0  0  0  0  0  0  0  0
    4.6520   -4.6759  -21.5843 H   0  0  0  0  0  0  0  0  0  0  0  0
    3.1775   -5.6080  -20.9138 H   0  0  0  0  0  0  0  0  0  0  0  0
    4.7242   -6.3678  -21.9674 H   0  0  0  0  0  0  0  0  0  0  0  0
    8.4498    6.1920  -12.9657 H   0  0  0  0  0  0  0  0  0  0  0  0
    9.5599    4.8846  -13.2995 H   0  0  0  0  0  0  0  0  0  0  0  0
    7.8375    4.5908  -13.3039 H   0  0  0  0  0  0  0  0  0  0  0  0
   11.6703    9.5603  -20.0224 H   0  0  0  0  0  0  0  0  0  0  0  0
   12.6643    8.9096  -18.7411 H   0  0  0  0  0  0  0  0  0  0  0  0
   11.5541   10.2170  -18.4074 H   0  0  0  0  0  0  0  0  0  0  0  0
    8.2376    7.5250  -18.8940 H   0  0  0  0  0  0  0  0  0  0  0  0
    7.6253    5.9238  -19.2321 H   0  0  0  0  0  0  0  0  0  0  0  0
    8.3537    6.8683  -20.5090 H   0  0  0  0  0  0  0  0  0  0  0  0
   10.6056    6.1649  -15.2643 H   0  0  0  0  0  0  0  0  0  0  0  0
    8.8832    5.8711  -15.2687 H   0  0  0  0  0  0  0  0  0  0  0  0
  1  2  1  0  0  0  0
  1 81  1  0  0  0  0
  1 82  1  0  0  0  0
  1 83  1  0  0  0  0
  2  3  1  0  0  0  0
  2 80  1  0  0  0  0
  2 84  1  6  0  0  0
  3  4  1  0  0  0  0
  3 85  1  0  0  0  0
  3 86  1  0  0  0  0
  4  5  1  0  0  0  0
  4 87  1  0  0  0  0
  4 88  1  0  0  0  0
  5  6  1  0  0  0  0
  5  9  1  6  0  0  0
  5 79  1  0  0  0  0
  6  7  1  0  0  0  0
  6 78  1  0  0  0  0
  6 89  1  6  0  0  0
  7  8  1  0  0  0  0
  7 12  1  0  0  0  0
  7 90  1  1  0  0  0
  8  9  1  0  0  0  0
  8 10  1  0  0  0  0
  8 91  1  1  0  0  0
 10 11  1  0  0  0  0
 10 92  1  0  0  0  0
 10 93  1  0  0  0  0
 11 12  1  0  0  0  0
 11 16  1  0  0  0  0
 11 94  1  6  0  0  0
 12 13  1  0  0  0  0
 12 77  1  1  0  0  0
 13 14  1  0  0  0  0
 13 95  1  0  0  0  0
 13 96  1  0  0  0  0
 14 15  1  0  0  0  0
 14 97  1  0  0  0  0
 14 98  1  0  0  0  0
 15 16  1  0  0  0  0
 15 20  1  0  0  0  0
 15 99  1  6  0  0  0
 16 17  1  0  0  0  0
 16100  1  6  0  0  0
 17 18  1  0  0  0  0
 17101  1  0  0  0  0
 17102  1  0  0  0  0
 18 19  1  0  0  0  0
 18103  1  0  0  0  0
 18104  1  0  0  0  0
 19 20  1  0  0  0  0
 19 24  1  0  0  0  0
 19105  1  1  0  0  0
 20 21  1  0  0  0  0
 20 76  1  6  0  0  0
 21 22  1  0  0  0  0
 21106  1  0  0  0  0
 21107  1  0  0  0  0
 22 23  1  0  0  0  0
 22108  1  0  0  0  0
 22109  1  0  0  0  0
 23 24  1  0  0  0  0
 23 25  1  0  0  0  0
 23110  1  1  0  0  0
 24111  1  0  0  0  0
 24112  1  0  0  0  0
 25 26  1  0  0  0  0
 26 27  1  0  0  0  0
 26 31  1  0  0  0  0
 26113  1  1  0  0  0
 27 28  1  0  0  0  0
 27 65  1  0  0  0  0
 27114  1  6  0  0  0
 28 29  1  0  0  0  0
 28 64  1  0  0  0  0
 28115  1  1  0  0  0
 29 30  1  0  0  0  0
 29 34  1  0  0  0  0
 29116  1  6  0  0  0
 30 31  1  0  0  0  0
 30 32  1  0  0  0  0
 30117  1  1  0  0  0
 32 33  1  0  0  0  0
 32118  1  0  0  0  0
 32119  1  0  0  0  0
 33120  1  0  0  0  0
 34 35  1  0  0  0  0
 35 36  1  0  0  0  0
 35 40  1  0  0  0  0
 35121  1  6  0  0  0
 36 37  1  0  0  0  0
 36 54  1  0  0  0  0
 36122  1  1  0  0  0
 37 38  1  0  0  0  0
 37 44  1  0  0  0  0
 37123  1  6  0  0  0
 38 39  1  0  0  0  0
 38 43  1  0  0  0  0
 38124  1  6  0  0  0
 39 40  1  0  0  0  0
 39 41  1  0  0  0  0
 39125  1  6  0  0  0
 41 42  1  0  0  0  0
 41126  1  0  0  0  0
 41127  1  0  0  0  0
 42128  1  0  0  0  0
 43129  1  0  0  0  0
 45 46  1  0  0  0  0
 45 50  1  0  0  0  0
 45 44  1  0  0  0  0
 45130  1  1  0  0  0
 46 47  1  0  0  0  0
 46 53  1  0  0  0  0
 46131  1  1  0  0  0
 47 48  1  0  0  0  0
 47 52  1  0  0  0  0
 47132  1  6  0  0  0
 48 49  1  0  0  0  0
 48 51  1  0  0  0  0
 48133  1  6  0  0  0
 49 50  1  0  0  0  0
 49134  1  0  0  0  0
 49135  1  0  0  0  0
 51136  1  0  0  0  0
 52137  1  0  0  0  0
 53138  1  0  0  0  0
 55 56  1  0  0  0  0
 55 60  1  0  0  0  0
 55 54  1  0  0  0  0
 55139  1  6  0  0  0
 56 57  1  0  0  0  0
 56 63  1  0  0  0  0
 56140  1  6  0  0  0
 57 58  1  0  0  0  0
 57 62  1  0  0  0  0
 57141  1  1  0  0  0
 58 59  1  0  0  0  0
 58 61  1  0  0  0  0
 58142  1  1  0  0  0
 59 60  1  0  0  0  0
 59143  1  0  0  0  0
 59144  1  0  0  0  0
 61145  1  0  0  0  0
 62146  1  0  0  0  0
 63147  1  0  0  0  0
 64148  1  0  0  0  0
 65 66  1  0  0  0  0
 66 67  1  0  0  0  0
 66 71  1  0  0  0  0
 66149  1  6  0  0  0
 67 68  1  0  0  0  0
 67 75  1  0  0  0  0
 67150  1  1  0  0  0
 68 69  1  0  0  0  0
 68 74  1  0  0  0  0
 68151  1  1  0  0  0
 69 70  1  0  0  0  0
 69 73  1  0  0  0  0
 69152  1  1  0  0  0
 70 71  1  0  0  0  0
 70 72  1  0  0  0  0
 70153  1  1  0  0  0
 72154  1  0  0  0  0
 72155  1  0  0  0  0
 72156  1  0  0  0  0
 73157  1  0  0  0  0
 74158  1  0  0  0  0
 75159  1  0  0  0  0
 76160  1  0  0  0  0
 76161  1  0  0  0  0
 76162  1  0  0  0  0
 77163  1  0  0  0  0
 77164  1  0  0  0  0
 77165  1  0  0  0  0
 78166  1  0  0  0  0
 78167  1  0  0  0  0
 78168  1  0  0  0  0
 79 80  1  0  0  0  0
 80169  1  0  0  0  0
 80170  1  0  0  0  0
M  END
$$$$
