
 OpenBabel03102508543D

 81 85  0  0  1  0  0  0  0  0999 V2000
    0.9193   -0.0039    0.0590 C   0  0  0  0  0  0  0  0  0  0  0  0
    2.3393   -0.0039    0.0590 O   0  0  0  0  0  0  0  0  0  0  0  0
    3.0493    0.8025    0.9874 C   0  0  0  0  0  0  0  0  0  0  0  0
    4.4895    0.8025    0.9874 C   0  0  0  0  0  0  0  0  0  0  0  0
    5.2096    1.6205    1.9290 C   0  0  0  0  0  0  0  0  0  0  0  0
    4.4895    2.4384    2.8706 C   0  0  0  0  0  0  0  0  0  0  0  0
    3.0493    2.4384    2.8706 C   0  0  0  0  0  0  0  0  0  0  0  0
    0.5265    5.5677    4.5807 C   0  0  0  0  0  0  0  0  0  0  0  0
    1.9465    5.5677    4.5807 O   0  0  0  0  0  0  0  0  0  0  0  0
    2.6565    4.7613    3.6523 C   0  0  2  0  0  0  0  0  0  0  0  0
    2.2893    3.3016    3.8644 C   0  0  1  0  0  0  0  0  0  0  0  0
    0.7949    3.1195    3.6547 C   0  0  0  0  0  0  0  0  0  0  0  0
    0.3713    2.3337    2.7501 O   0  0  0  0  0  0  0  0  0  0  0  0
   -0.1603    3.8522    4.4982 N   0  0  0  0  0  0  0  0  0  0  0  0
   -1.6056    3.6760    4.2954 C   0  0  0  0  0  0  0  0  0  0  0  0
   -2.3656    4.5393    5.2892 C   0  0  0  0  0  0  0  0  0  0  0  0
   -1.7301    5.2610    6.1202 O   0  0  0  0  0  0  0  0  0  0  0  0
   -3.8856    4.5393    5.2892 C   0  0  0  0  0  0  0  0  0  0  0  0
   -4.6057    5.3572    6.2308 C   0  0  0  0  0  0  0  0  0  0  0  0
   -6.0459    5.3572    6.2308 C   0  0  0  0  0  0  0  0  0  0  0  0
   -6.7660    6.1751    7.1725 C   0  0  0  0  0  0  0  0  0  0  0  0
   -6.0459    6.9930    8.1141 C   0  0  0  0  0  0  0  0  0  0  0  0
   -4.6057    3.7214    4.3476 C   0  0  0  0  0  0  0  0  0  0  0  0
   -8.1860    6.1751    7.1725 O   0  0  0  0  0  0  0  0  0  0  0  0
    4.1509    4.9434    3.8620 C   0  0  0  0  0  0  0  0  0  0  0  0
    4.7450    6.2472    3.7159 C   0  0  0  0  0  0  0  0  0  0  0  0
    6.1609    6.4198    3.9145 C   0  0  0  0  0  0  0  0  0  0  0  0
    6.9828    5.2886    4.2593 C   0  0  0  0  0  0  0  0  0  0  0  0
    8.3988    5.4611    4.4580 C   0  0  0  0  0  0  0  0  0  0  0  0
    4.9729    3.8122    4.2068 C   0  0  0  0  0  0  0  0  0  0  0  0
    6.3972    4.0030    4.4034 O   0  0  0  0  0  0  0  0  0  0  0  0
    6.7466    7.7053    3.7705 O   0  0  0  0  0  0  0  0  0  0  0  0
    8.1427    7.8755    3.9664 C   0  0  0  0  0  0  0  0  0  0  0  0
    6.7296    1.6205    1.9290 C   0  0  0  0  0  0  0  0  0  0  0  0
    7.4098    2.3931    2.8184 C   0  0  0  0  0  0  0  0  0  0  0  0
    8.9298    2.3931    2.8184 C   0  0  0  0  0  0  0  0  0  0  0  0
    9.5653    1.6713    1.9875 O   0  0  0  0  0  0  0  0  0  0  0  0
    9.6648    3.2279    3.7795 N   0  0  0  0  0  0  0  0  0  0  0  0
   11.1348    3.2279    3.7795 C   0  0  0  0  0  0  0  0  0  0  0  0
   11.6415    4.1677    4.8614 C   0  0  0  0  0  0  0  0  0  0  0  0
   13.1615    4.1677    4.8614 C   0  0  0  0  0  0  0  0  0  0  0  0
   13.8816    4.9856    5.8031 C   0  0  0  0  0  0  0  0  0  0  0  0
   15.3218    4.9856    5.8031 C   0  0  0  0  0  0  0  0  0  0  0  0
   16.0419    5.8035    6.7447 C   0  0  0  0  0  0  0  0  0  0  0  0
   15.3218    6.6214    7.6863 C   0  0  0  0  0  0  0  0  0  0  0  0
   13.8816    3.3498    3.9198 C   0  0  0  0  0  0  0  0  0  0  0  0
   17.4619    5.8035    6.7447 O   0  0  0  0  0  0  0  0  0  0  0  0
    0.5627   -0.6655   -0.7026 H   0  0  0  0  0  0  0  0  0  0  0  0
    0.5627    0.9864   -0.1331 H   0  0  0  0  0  0  0  0  0  0  0  0
    0.5627   -0.3327    1.0127 H   0  0  0  0  0  0  0  0  0  0  0  0
    5.0055    0.2165    0.3127 H   0  0  0  0  0  0  0  0  0  0  0  0
    5.0055    3.0245    3.5453 H   0  0  0  0  0  0  0  0  0  0  0  0
    2.3980    5.0529    2.6558 H   0  0  0  0  0  0  0  0  0  0  0  0
    2.5478    3.0100    4.8609 H   0  0  0  0  0  0  0  0  0  0  0  0
    0.1678    4.4609    5.1990 H   0  0  0  0  0  0  0  0  0  0  0  0
   -1.8641    2.6485    4.4448 H   0  0  0  0  0  0  0  0  0  0  0  0
   -1.8641    3.9677    3.2989 H   0  0  0  0  0  0  0  0  0  0  0  0
   -4.0897    5.9433    6.9056 H   0  0  0  0  0  0  0  0  0  0  0  0
   -6.5619    4.7711    5.5561 H   0  0  0  0  0  0  0  0  0  0  0  0
   -5.9210    7.6648    8.8875 H   0  0  0  0  0  0  0  0  0  0  0  0
   -4.7305    3.0496    3.5742 H   0  0  0  0  0  0  0  0  0  0  0  0
   -8.6545    5.6430    6.5598 H   0  0  0  0  0  0  0  0  0  0  0  0
    4.1560    7.0578    3.4688 H   0  0  0  0  0  0  0  0  0  0  0  0
    9.3837    5.7503    4.5647 H   0  0  0  0  0  0  0  0  0  0  0  0
    4.7068    2.8250    4.3473 H   0  0  0  0  0  0  0  0  0  0  0  0
    5.4759    3.8907    4.2741 H   0  0  0  0  0  0  0  0  0  0  0  0
    8.4012    8.9030    3.8170 H   0  0  0  0  0  0  0  0  0  0  0  0
    8.6777    7.2678    3.2668 H   0  0  0  0  0  0  0  0  0  0  0  0
    8.4012    7.5839    4.9629 H   0  0  0  0  0  0  0  0  0  0  0  0
    7.2456    1.0344    1.2543 H   0  0  0  0  0  0  0  0  0  0  0  0
    6.8938    2.9792    3.4932 H   0  0  0  0  0  0  0  0  0  0  0  0
    9.1726    3.7870    4.4232 H   0  0  0  0  0  0  0  0  0  0  0  0
   11.4915    3.5567    2.8258 H   0  0  0  0  0  0  0  0  0  0  0  0
   11.4915    2.2376    3.9717 H   0  0  0  0  0  0  0  0  0  0  0  0
   11.2848    3.8389    5.8152 H   0  0  0  0  0  0  0  0  0  0  0  0
   11.2848    5.1580    4.6693 H   0  0  0  0  0  0  0  0  0  0  0  0
   13.3656    5.5717    6.4778 H   0  0  0  0  0  0  0  0  0  0  0  0
   15.8378    4.3995    5.1283 H   0  0  0  0  0  0  0  0  0  0  0  0
   15.1969    7.2932    8.4597 H   0  0  0  0  0  0  0  0  0  0  0  0
   14.0065    2.6780    3.1464 H   0  0  0  0  0  0  0  0  0  0  0  0
   17.9304    5.2714    6.1321 H   0  0  0  0  0  0  0  0  0  0  0  0
  1  2  1  0  0  0  0
  1 48  1  0  0  0  0
  1 49  1  0  0  0  0
  1 50  1  0  0  0  0
  2  3  1  0  0  0  0
  3  4  2  0  0  0  0
  3  8  1  0  0  0  0
  4  5  1  0  0  0  0
  4 51  1  0  0  0  0
  5  6  2  0  0  0  0
  5 34  1  0  0  0  0
  6  7  1  0  0  0  0
  6 52  1  0  0  0  0
  7  8  2  0  0  0  0
  7 11  1  0  0  0  0
  8  9  1  0  0  0  0
  9 10  1  0  0  0  0
 10 11  1  0  0  0  0
 10 25  1  0  0  0  0
 10 53  1  6  0  0  0
 11 12  1  0  0  0  0
 11 54  1  1  0  0  0
 12 13  2  0  0  0  0
 12 14  1  0  0  0  0
 14 15  1  0  0  0  0
 14 55  1  0  0  0  0
 15 16  1  0  0  0  0
 15 56  1  0  0  0  0
 15 57  1  0  0  0  0
 16 17  2  0  0  0  0
 16 18  1  0  0  0  0
 18 19  2  0  0  0  0
 18 23  1  0  0  0  0
 19 20  1  0  0  0  0
 19 58  1  0  0  0  0
 20 21  2  0  0  0  0
 20 59  1  0  0  0  0
 21 22  1  0  0  0  0
 21 24  1  0  0  0  0
 22 23  2  0  0  0  0
 22 60  1  0  0  0  0
 23 61  1  0  0  0  0
 24 62  1  0  0  0  0
 25 26  2  0  0  0  0
 25 30  1  0  0  0  0
 26 27  1  0  0  0  0
 26 63  1  0  0  0  0
 27 28  2  0  0  0  0
 27 32  1  0  0  0  0
 28 29  1  0  0  0  0
 28 31  1  0  0  0  0
 29 30  2  0  0  0  0
 29 64  1  0  0  0  0
 30 65  1  0  0  0  0
 31 66  1  0  0  0  0
 32 33  1  0  0  0  0
 33 67  1  0  0  0  0
 33 68  1  0  0  0  0
 33 69  1  0  0  0  0
 34 35  2  0  0  0  0
 34 70  1  0  0  0  0
 35 36  1  0  0  0  0
 35 71  1  0  0  0  0
 36 37  2  0  0  0  0
 36 38  1  0  0  0  0
 38 39  1  0  0  0  0
 38 72  1  0  0  0  0
 39 40  1  0  0  0  0
 39 73  1  0  0  0  0
 39 74  1  0  0  0  0
 40 41  1  0  0  0  0
 40 75  1  0  0  0  0
 40 76  1  0  0  0  0
 41 42  2  0  0  0  0
 41 46  1  0  0  0  0
 42 43  1  0  0  0  0
 42 77  1  0  0  0  0
 43 44  2  0  0  0  0
 43 78  1  0  0  0  0
 44 45  1  0  0  0  0
 44 47  1  0  0  0  0
 45 46  2  0  0  0  0
 45 79  1  0  0  0  0
 46 80  1  0  0  0  0
 47 81  1  0  0  0  0
M  END
$$$$
