
 OpenBabel03102508543D

 37 39  0  0  0  0  0  0  0  0999 V2000
    0.9267   -0.0079   -0.0675 C   0  0  0  0  0  0  0  0  0  0  0  0
    2.3669   -0.0079   -0.0675 C   0  0  0  0  0  0  0  0  0  0  0  0
    3.0870   -0.7638   -1.0596 C   0  0  0  0  0  0  0  0  0  0  0  0
    4.5272   -0.7638   -1.0596 C   0  0  0  0  0  0  0  0  0  0  0  0
    5.2473   -1.5198   -2.0516 C   0  0  0  0  0  0  0  0  0  0  0  0
    6.6401   -1.5198   -2.0516 N   0  0  0  0  0  0  0  0  0  0  0  0
    7.3365   -2.2509   -3.0110 C   0  0  0  0  0  0  0  0  0  0  0  0
    8.7767   -2.2509   -3.0110 C   0  0  0  0  0  0  0  0  0  0  0  0
    9.5367   -1.4531   -1.9640 C   0  0  0  0  0  0  0  0  0  0  0  0
   11.0567   -1.4531   -1.9640 C   0  0  0  0  0  0  0  0  0  0  0  0
    8.8565   -0.7390   -1.0269 C   0  0  0  0  0  0  0  0  0  0  0  0
    9.6165    0.0589    0.0201 C   0  0  0  0  0  0  0  0  0  0  0  0
   10.9769    0.0589    0.0201 C   0  0  0  0  0  0  0  0  0  0  0  0
   11.6869    0.8042    0.9982 O   0  0  0  0  0  0  0  0  0  0  0  0
    7.3365   -0.7390   -1.0269 C   0  0  0  0  0  0  0  0  0  0  0  0
    6.8632    0.0725    0.0379 O   0  0  0  0  0  0  0  0  0  0  0  0
    9.4731   -2.9820   -3.9704 N   0  0  0  0  0  0  0  0  0  0  0  0
   10.8659   -2.9820   -3.9704 C   0  0  0  0  0  0  0  0  0  0  0  0
   11.5860   -3.7380   -4.9624 C   0  0  0  0  0  0  0  0  0  0  0  0
    6.6164   -3.0069   -4.0030 C   0  0  0  0  0  0  0  0  0  0  0  0
    4.5272   -2.2758   -3.0436 C   0  0  0  0  0  0  0  0  0  0  0  0
   -0.0229    0.2370    0.2539 H   0  0  0  0  0  0  0  0  0  0  0  0
    2.8829    0.5338    0.6433 H   0  0  0  0  0  0  0  0  0  0  0  0
    2.5710   -1.3055   -1.7704 H   0  0  0  0  0  0  0  0  0  0  0  0
    5.0432   -0.2221   -0.3487 H   0  0  0  0  0  0  0  0  0  0  0  0
    7.1323   -1.0030   -1.3735 H   0  0  0  0  0  0  0  0  0  0  0  0
   11.4134   -2.0645   -2.7664 H   0  0  0  0  0  0  0  0  0  0  0  0
   11.4134   -1.8422   -1.0333 H   0  0  0  0  0  0  0  0  0  0  0  0
   11.4134   -0.4524   -2.0923 H   0  0  0  0  0  0  0  0  0  0  0  0
    9.1005    0.6006    0.7309 H   0  0  0  0  0  0  0  0  0  0  0  0
   11.4929   -0.4828   -0.6908 H   0  0  0  0  0  0  0  0  0  0  0  0
   11.2184    1.2961    1.6436 H   0  0  0  0  0  0  0  0  0  0  0  0
    6.9798   -1.7396   -0.8986 H   0  0  0  0  0  0  0  0  0  0  0  0
    6.9798   -0.3498   -1.9576 H   0  0  0  0  0  0  0  0  0  0  0  0
    7.1865   -0.2803    0.8817 H   0  0  0  0  0  0  0  0  0  0  0  0
   11.3819   -2.4403   -3.2595 H   0  0  0  0  0  0  0  0  0  0  0  0
   12.4122   -4.1129   -5.4544 H   0  0  0  0  0  0  0  0  0  0  0  0
  1  2  1  0  0  0  0
  1 21  2  0  0  0  0
  1 22  1  0  0  0  0
  2  3  2  0  0  0  0
  2 23  1  0  0  0  0
  3  4  1  0  0  0  0
  3 24  1  0  0  0  0
  4  5  2  0  0  0  0
  4 25  1  0  0  0  0
  5  6  1  0  0  0  0
  5 21  1  0  0  0  0
  6  7  1  0  0  0  0
  6 26  1  0  0  0  0
  7  8  1  0  0  0  0
  7 20  2  0  0  0  0
  8  9  1  0  0  0  0
  8 17  2  0  0  0  0
  9 10  1  0  0  0  0
  9 11  2  0  0  0  0
 10 27  1  0  0  0  0
 10 28  1  0  0  0  0
 10 29  1  0  0  0  0
 11 12  1  0  0  0  0
 11 15  1  0  0  0  0
 12 13  2  0  0  0  0
 12 30  1  0  0  0  0
 13 14  1  0  0  0  0
 13 31  1  0  0  0  0
 14 32  1  0  0  0  0
 15 16  1  0  0  0  0
 15 33  1  0  0  0  0
 15 34  1  0  0  0  0
 16 35  1  0  0  0  0
 17 18  1  0  0  0  0
 18 19  2  0  0  0  0
 18 36  1  0  0  0  0
 19 20  1  0  0  0  0
 19 37  1  0  0  0  0
 20 21  1  0  0  0  0
M  END
$$$$
