REMARK  Name = 
REMARK  4 active torsions:
REMARK  status: ('A' for Active; 'I' for Inactive)
REMARK    1  A    between atoms: C_1  and  C_2
REMARK    2  A    between atoms: C_6  and  C_29
REMARK    3  A    between atoms: C_12  and  C_28
REMARK    4  A    between atoms: C_26  and  C_27
REMARK                            x       y       z     vdW  Elec       q    Type
REMARK                         _______ _______ _______ _____ _____    ______ ____
ROOT
ATOM      1  C   UNL     1       2.591  -0.125  -1.420  0.00  0.00    +0.010 C 
ATOM      2  C   UNL     1       2.478   0.020   0.088  0.00  0.00    +0.012 C 
ATOM      3  C   UNL     1       4.878   1.747   3.384  0.00  0.00    +0.011 C 
ATOM      4  C   UNL     1       4.371   0.368   3.775  0.00  0.00    +0.065 C 
ATOM      5  C   UNL     1       4.878  -0.660   2.776  0.00  0.00    +0.173 C 
ATOM      6  C   UNL     1       6.398  -0.660   2.776  0.00  0.00    +0.052 C 
ATOM      7  C   UNL     1       6.904   0.719   2.385  0.00  0.00    +0.039 C 
ATOM      8  C   UNL     1      -5.034  -0.788   4.457  0.00  0.00    +0.126 C 
ATOM      9  O   UNL     1       4.404  -1.948   3.140  0.00  0.00    -0.345 OA
ATOM     10  C   UNL     1      -3.689  -1.167   5.056  0.00  0.00    +0.036 C 
ATOM     11  C   UNL     1      -2.612  -1.067   3.988  0.00  0.00    +0.008 C 
ATOM     12  C   UNL     1       6.398   1.070   0.996  0.00  0.00    +0.035 C 
ATOM     13  C   UNL     1       4.878   1.070   0.996  0.00  0.00    +0.140 C 
ATOM     14  O   UNL     1       4.242   2.129   0.696  0.00  0.00    -0.297 OA
ATOM     15  C   UNL     1       4.118  -0.196   1.355  0.00  0.00    +0.079 C 
ATOM     16  C   UNL     1       2.623   0.071   1.279  0.00  0.00    +0.009 C 
ATOM     17  C   UNL     1      -1.268  -1.446   4.586  0.00  0.00    -0.002 C 
ATOM     18  C   UNL     1      -0.191  -1.346   3.518  0.00  0.00    +0.008 C 
ATOM     19  C   UNL     1       1.154  -1.724   4.117  0.00  0.00    +0.032 C 
ATOM     20  C   UNL     1       2.230  -1.624   3.049  0.00  0.00    -0.060 C 
ATOM     21  C   UNL     1       3.523  -1.918   3.356  0.00  0.00    +0.046 C 
ATOM     22  C   UNL     1       3.890  -2.347   4.767  0.00  0.00    +0.156 C 
ATOM     23  O   UNL     1       2.990  -2.431   5.660  0.00  0.00    -0.293 OA
ATOM     24  C   UNL     1       5.334  -2.676   5.110  0.00  0.00    +0.080 C 
ATOM     25  C   UNL     1       2.230  -2.301   0.660  0.00  0.00    +0.019 C 
ATOM     26  C   UNL     1       1.863  -1.196   1.637  0.00  0.00    -0.007 C 
ATOM     27  C   UNL     1       0.369  -0.928   1.562  0.00  0.00    +0.016 C 
ATOM     28  C   UNL     1       6.904   2.449   0.606  0.00  0.00    +0.020 C 
ATOM     29  C   UNL     1       6.904  -1.687   1.777  0.00  0.00    +0.013 C 
ATOM     30  O   UNL     1       4.404  -0.332   1.478  0.00  0.00    -0.348 OA
ATOM     31  C   UNL     1       2.984  -0.332   1.478  0.00  0.00    +0.166 C 
ENDROOT
TORSDOF 0
