REMARK  Name = 
REMARK  6 active torsions:
REMARK  status: ('A' for Active; 'I' for Inactive)
REMARK    1  A    between atoms: C_1  and  O_2
REMARK    2  A    between atoms: O_2  and  C_3
REMARK    3  A    between atoms: C_4  and  O_14
REMARK    4  A    between atoms: C_7  and  C_9
REMARK    5  A    between atoms: C_10  and  C_11
REMARK    6  A    between atoms: C_11  and  O_13
REMARK                            x       y       z     vdW  Elec       q    Type
REMARK                         _______ _______ _______ _____ _____    ______ ____
ROOT
ATOM      1  C   UNL     1       3.052   0.901  -0.920  0.00  0.00    +0.162 A 
ATOM      2  C   UNL     1       4.492   0.901  -0.920  0.00  0.00    +0.158 A 
ATOM      3  C   UNL     1       5.212   0.011  -0.045  0.00  0.00    +0.050 A 
ATOM      4  C   UNL     1       4.492  -0.878   0.829  0.00  0.00    +0.012 A 
ATOM      5  C   UNL     1       5.212  -1.768   1.704  0.00  0.00    -0.021 A 
ATOM      6  C   UNL     1       2.332   1.790  -1.794  0.00  0.00    +0.057 A 
ENDROOT
BRANCH   1   8
ATOM      7  C   UNL     1       0.922   0.024  -0.058  0.00  0.00    +0.277 C 
ATOM      8  O   UNL     1       2.342   0.024  -0.058  0.00  0.00    -0.491 OA
ENDBRANCH   1   8
BRANCH   5   9
ATOM      9  C   UNL     1       4.452  -2.706   2.626  0.00  0.00    +0.015 C 
ATOM     10  C   UNL     1       5.132  -3.546   3.452  0.00  0.00    +0.092 C 
BRANCH  10  11
ATOM     11  C   UNL     1       4.372  -4.485   4.375  0.00  0.00    +0.330 C 
ATOM     12  O   UNL     1       3.101  -4.485   4.375  0.00  0.00    -0.246 OA
BRANCH  11  13
ATOM     13  O   UNL     1       5.082  -5.362   5.237  0.00  0.00    -0.478 OA
ATOM     14  H   UNL     1       6.019  -5.362   5.237  0.00  0.00    +0.295 HD
ENDBRANCH  11  13
ENDBRANCH  10  11
ENDBRANCH   5   9
BRANCH   2  15
ATOM     15  O   UNL     1       5.202   1.778  -1.782  0.00  0.00    -0.503 OA
ATOM     16  H   UNL     1       4.733   2.357  -2.350  0.00  0.00    +0.292 HD
ENDBRANCH   2  15
TORSDOF 5
