REMARK  Name = 
REMARK  2 active torsions:
REMARK  status: ('A' for Active; 'I' for Inactive)
REMARK    1  A    between atoms: C_4  and  C_7
REMARK    2  A    between atoms: C_8  and  O_18
REMARK                            x       y       z     vdW  Elec       q    Type
REMARK                         _______ _______ _______ _____ _____    ______ ____
ROOT
ATOM      1  C   UNL     1       5.405   2.337   1.220  0.00  0.00    +0.181 A 
ATOM      2  C   UNL     1       6.846   2.337   1.220  0.00  0.00    +0.208 A 
ATOM      3  C   UNL     1       7.566   1.243   0.620  0.00  0.00    +0.234 A 
ATOM      4  O   UNL     1       8.837   1.243   0.620  0.00  0.00    -0.283 OA
ATOM      5  C   UNL     1       6.846   0.149   0.021  0.00  0.00    +0.068 A 
ATOM      6  C   UNL     1       7.566  -0.945  -0.578  0.00  0.00    +0.015 A 
ATOM      7  C   UNL     1       6.846  -2.039  -1.177  0.00  0.00    +0.001 A 
ATOM      8  C   UNL     1       7.566  -3.132  -1.776  0.00  0.00    +0.004 A 
ATOM      9  C   UNL     1       6.846  -4.226  -2.376  0.00  0.00    +0.047 A 
ATOM     10  C   UNL     1       5.405   0.149   0.021  0.00  0.00    +0.140 A 
ATOM     11  O   UNL     1       4.733   3.359   1.779  0.00  0.00    -0.451 OA
ENDROOT
BRANCH   1  15
ATOM     12  C   UNL     1       1.045   0.089  -0.012  0.00  0.00    +0.000 A 
ATOM     13  C   UNL     1       2.485   0.089  -0.012  0.00  0.00    +0.001 A 
ATOM     14  C   UNL     1       3.205   1.183   0.587  0.00  0.00    +0.011 A 
ATOM     15  C   UNL     1       4.645   1.183   0.587  0.00  0.00    +0.021 A 
ATOM     16  C   UNL     1       5.365   0.089  -0.012  0.00  0.00    +0.011 A 
ATOM     17  C   UNL     1       0.325  -1.005  -0.611  0.00  0.00    +0.001 A 
ENDBRANCH   1  15
BRANCH   2  18
ATOM     18  O   UNL     1       7.556   3.416   1.810  0.00  0.00    -0.501 OA
ATOM     19  H   UNL     1       7.087   4.127   2.200  0.00  0.00    +0.292 HD
ENDBRANCH   2  18
TORSDOF 2
