REMARK  Name = 
REMARK  7 active torsions:
REMARK  status: ('A' for Active; 'I' for Inactive)
REMARK    1  A    between atoms: C_1  and  O_2
REMARK    2  A    between atoms: O_2  and  C_3
REMARK    3  A    between atoms: C_4  and  O_23
REMARK    4  A    between atoms: C_7  and  C_9
REMARK    5  A    between atoms: C_10  and  O_22
REMARK    6  A    between atoms: C_14  and  O_21
REMARK    7  A    between atoms: C_16  and  O_20
REMARK                            x       y       z     vdW  Elec       q    Type
REMARK                         _______ _______ _______ _____ _____    ______ ____
ROOT
ATOM      1  C   UNL     1       4.587   1.455   3.628  0.00  0.00    +0.181 A 
ATOM      2  C   UNL     1       5.307   1.915   4.788  0.00  0.00    +0.208 A 
ATOM      3  C   UNL     1       6.747   1.915   4.788  0.00  0.00    +0.238 A 
ATOM      4  O   UNL     1       7.383   2.321   5.811  0.00  0.00    -0.283 OA
ATOM      5  C   UNL     1       7.468   1.455   3.628  0.00  0.00    +0.109 A 
ATOM      6  C   UNL     1       8.908   1.455   3.628  0.00  0.00    +0.135 A 
ATOM      7  C   UNL     1       9.628   1.915   4.788  0.00  0.00    +0.091 A 
ATOM      8  C   UNL     1       8.908   2.375   5.947  0.00  0.00    +0.124 A 
ATOM      9  C   UNL     1       7.468   2.375   5.947  0.00  0.00    +0.092 A 
ATOM     10  C   UNL     1       6.747   0.995   2.469  0.00  0.00    +0.147 A 
ATOM     11  O   UNL     1       3.242   1.455   3.628  0.00  0.00    -0.451 OA
ENDROOT
BRANCH   1  16
ATOM     12  C   UNL     1       3.187  -0.410  -1.073  0.00  0.00    +0.162 A 
ATOM     13  C   UNL     1       4.627  -0.410  -1.073  0.00  0.00    +0.158 A 
ATOM     14  C   UNL     1       5.347   0.050   0.086  0.00  0.00    +0.050 A 
ATOM     15  C   UNL     1       4.627   0.510   1.246  0.00  0.00    +0.015 A 
ATOM     16  C   UNL     1       5.347   0.970   2.405  0.00  0.00    +0.025 A 
ATOM     17  C   UNL     1       2.467  -0.870  -2.232  0.00  0.00    +0.061 A 
BRANCH  12  19
ATOM     18  C   UNL     1       1.057   0.043   0.070  0.00  0.00    +0.277 C 
ATOM     19  O   UNL     1       2.477   0.043   0.070  0.00  0.00    -0.491 OA
ENDBRANCH  12  19
BRANCH  13  20
ATOM     20  O   UNL     1       5.337  -0.864  -2.216  0.00  0.00    -0.503 OA
ATOM     21  H   UNL     1       4.869  -1.163  -2.970  0.00  0.00    +0.292 HD
ENDBRANCH  13  20
ENDBRANCH   1  16
BRANCH   8  22
ATOM     22  O   UNL     1       9.618   2.829   7.090  0.00  0.00    -0.507 OA
ATOM     23  H   UNL     1      10.555   2.829   7.090  0.00  0.00    +0.292 HD
ENDBRANCH   8  22
BRANCH   6  24
ATOM     24  O   UNL     1       9.618   1.002   2.485  0.00  0.00    -0.506 OA
ATOM     25  H   UNL     1       9.149   0.702   1.731  0.00  0.00    +0.292 HD
ENDBRANCH   6  24
BRANCH   2  26
ATOM     26  O   UNL     1       4.597   2.369   5.931  0.00  0.00    -0.501 OA
ATOM     27  H   UNL     1       3.660   2.369   5.931  0.00  0.00    +0.292 HD
ENDBRANCH   2  26
TORSDOF 6
