REMARK  Name = 
REMARK  5 active torsions:
REMARK  status: ('A' for Active; 'I' for Inactive)
REMARK    1  A    between atoms: C_3  and  O_21
REMARK    2  A    between atoms: C_6  and  C_7
REMARK    3  A    between atoms: C_8  and  O_20
REMARK    4  A    between atoms: C_12  and  O_19
REMARK    5  A    between atoms: C_14  and  O_18
REMARK                            x       y       z     vdW  Elec       q    Type
REMARK                         _______ _______ _______ _____ _____    ______ ____
ROOT
ATOM      1  C   UNL     1      -1.234  -1.108   0.339  0.00  0.00    +0.181 A 
ATOM      2  C   UNL     1      -1.954  -2.286   0.750  0.00  0.00    +0.208 A 
ATOM      3  C   UNL     1      -1.234  -3.464   1.160  0.00  0.00    +0.238 A 
ATOM      4  O   UNL     1      -1.869  -4.503   1.523  0.00  0.00    -0.283 OA
ATOM      5  C   UNL     1       0.207  -3.464   1.160  0.00  0.00    +0.109 A 
ATOM      6  C   UNL     1       0.927  -4.641   1.571  0.00  0.00    +0.135 A 
ATOM      7  C   UNL     1       0.207  -5.819   1.982  0.00  0.00    +0.091 A 
ATOM      8  C   UNL     1      -1.234  -5.819   1.982  0.00  0.00    +0.124 A 
ATOM      9  C   UNL     1      -1.954  -4.641   1.571  0.00  0.00    +0.092 A 
ATOM     10  C   UNL     1       0.927  -2.286   0.750  0.00  0.00    +0.147 A 
ATOM     11  O   UNL     1      -1.906  -0.008  -0.045  0.00  0.00    -0.451 OA
ENDROOT
BRANCH   1  17
ATOM     12  C   UNL     1       1.006   0.069  -0.072  0.00  0.00    +0.015 A 
ATOM     13  C   UNL     1       2.447   0.069  -0.072  0.00  0.00    +0.046 A 
ATOM     14  C   UNL     1       3.167   1.247  -0.482  0.00  0.00    +0.117 A 
ATOM     15  C   UNL     1       2.447   2.425  -0.893  0.00  0.00    +0.046 A 
ATOM     16  C   UNL     1       1.006   2.425  -0.893  0.00  0.00    +0.015 A 
ATOM     17  C   UNL     1       0.286  -1.108   0.339  0.00  0.00    +0.021 A 
BRANCH  14  18
ATOM     18  O   UNL     1       4.587   1.247  -0.482  0.00  0.00    -0.507 OA
ATOM     19  H   UNL     1       5.055   0.481  -0.215  0.00  0.00    +0.292 HD
ENDBRANCH  14  18
ENDBRANCH   1  17
BRANCH   8  20
ATOM     20  O   UNL     1      -1.944  -6.980   2.387  0.00  0.00    -0.507 OA
ATOM     21  H   UNL     1      -1.475  -7.747   2.654  0.00  0.00    +0.292 HD
ENDBRANCH   8  20
BRANCH   6  22
ATOM     22  O   UNL     1       2.347  -4.641   1.571  0.00  0.00    -0.506 OA
ATOM     23  H   UNL     1       2.815  -3.875   1.304  0.00  0.00    +0.292 HD
ENDBRANCH   6  22
BRANCH   2  24
ATOM     24  O   UNL     1      -3.374  -2.286   0.750  0.00  0.00    -0.501 OA
ATOM     25  H   UNL     1      -3.842  -1.520   0.482  0.00  0.00    +0.292 HD
ENDBRANCH   2  24
TORSDOF 5
