REMARK  Name = 
REMARK  0 active torsions:
REMARK  status: ('A' for Active; 'I' for Inactive)
REMARK                            x       y       z     vdW  Elec       q    Type
REMARK                         _______ _______ _______ _____ _____    ______ ____
ROOT
ATOM      1  C   UNL     1       1.073   0.051   0.045  0.00  0.00    +0.105 C 
ATOM      2  C   UNL     1       2.593   0.051   0.045  0.00  0.00    +0.105 C 
ATOM      3  C   UNL     1       3.100   0.208   1.470  0.00  0.00    +0.220 C 
ATOM      4  O   UNL     1       2.274   0.315   2.430  0.00  0.00    -0.275 OA
ATOM      5  N   UNL     1       4.545   0.238   1.737  0.00  0.00    -0.256 N 
ATOM      6  C   UNL     1       0.567  -0.107  -1.379  0.00  0.00    +0.220 C 
ATOM      7  O   UNL     1      -0.683  -0.133  -1.610  0.00  0.00    -0.275 OA
ATOM      8  H   UNL     1       5.442   0.283   2.141  0.00  0.00    +0.157 HD
ENDROOT
TORSDOF 0
