REMARK  Name = 
REMARK  6 active torsions:
REMARK  status: ('A' for Active; 'I' for Inactive)
REMARK    1  A    between atoms: C_3  and  O_22
REMARK    2  A    between atoms: C_4  and  O_21
REMARK    3  A    between atoms: C_6  and  C_7
REMARK    4  A    between atoms: C_8  and  O_20
REMARK    5  A    between atoms: C_12  and  O_19
REMARK    6  A    between atoms: C_14  and  O_18
REMARK                            x       y       z     vdW  Elec       q    Type
REMARK                         _______ _______ _______ _____ _____    ______ ____
ROOT
ATOM      1  C   UNL     1      -1.210   0.879   0.845  0.00  0.00    +0.181 A 
ATOM      2  C   UNL     1      -1.930   1.713   1.773  0.00  0.00    +0.208 A 
ATOM      3  C   UNL     1      -1.210   2.546   2.701  0.00  0.00    +0.238 A 
ATOM      4  O   UNL     1      -1.846   3.281   3.520  0.00  0.00    -0.283 OA
ATOM      5  C   UNL     1       0.230   2.546   2.701  0.00  0.00    +0.109 A 
ATOM      6  C   UNL     1       0.950   3.379   3.629  0.00  0.00    +0.135 A 
ATOM      7  C   UNL     1       0.230   4.212   4.558  0.00  0.00    +0.091 A 
ATOM      8  C   UNL     1      -1.210   4.212   4.558  0.00  0.00    +0.124 A 
ATOM      9  C   UNL     1      -1.930   3.379   3.629  0.00  0.00    +0.092 A 
ATOM     10  C   UNL     1       0.950   1.713   1.773  0.00  0.00    +0.147 A 
ATOM     11  O   UNL     1      -1.883   0.101  -0.022  0.00  0.00    -0.451 OA
ENDROOT
BRANCH   1  17
ATOM     12  C   UNL     1       1.030   0.046  -0.083  0.00  0.00    +0.015 A 
ATOM     13  C   UNL     1       2.470   0.046  -0.083  0.00  0.00    +0.050 A 
ATOM     14  C   UNL     1       3.190  -0.787  -1.012  0.00  0.00    +0.158 A 
ATOM     15  C   UNL     1       2.470  -1.620  -1.940  0.00  0.00    +0.159 A 
ATOM     16  C   UNL     1       3.190  -2.453  -2.868  0.00  0.00    +0.060 A 
ATOM     17  C   UNL     1       0.310   0.879   0.845  0.00  0.00    +0.025 A 
BRANCH  15  18
ATOM     18  O   UNL     1       1.050  -1.620  -1.940  0.00  0.00    -0.503 OA
ATOM     19  H   UNL     1       0.582  -1.078  -1.336  0.00  0.00    +0.292 HD
ENDBRANCH  15  18
BRANCH  14  20
ATOM     20  O   UNL     1       4.610  -0.787  -1.012  0.00  0.00    -0.503 OA
ATOM     21  H   UNL     1       5.079  -0.245  -0.408  0.00  0.00    +0.292 HD
ENDBRANCH  14  20
ENDBRANCH   1  17
BRANCH   8  22
ATOM     22  O   UNL     1      -1.920   5.034   5.473  0.00  0.00    -0.507 OA
ATOM     23  H   UNL     1      -1.452   5.575   6.077  0.00  0.00    +0.292 HD
ENDBRANCH   8  22
BRANCH   6  24
ATOM     24  O   UNL     1       2.370   3.379   3.629  0.00  0.00    -0.506 OA
ATOM     25  H   UNL     1       2.839   2.837   3.026  0.00  0.00    +0.292 HD
ENDBRANCH   6  24
BRANCH   2  26
ATOM     26  O   UNL     1      -3.350   1.713   1.773  0.00  0.00    -0.501 OA
ATOM     27  H   UNL     1      -3.819   1.171   1.169  0.00  0.00    +0.292 HD
ENDBRANCH   2  26
TORSDOF 6
