REMARK  Name = 
REMARK  15 active torsions:
REMARK  status: ('A' for Active; 'I' for Inactive)
REMARK    1  A    between atoms: C_1  and  O_2
REMARK    2  A    between atoms: O_2  and  C_3
REMARK    3  A    between atoms: C_4  and  O_32
REMARK    4  A    between atoms: C_7  and  C_9
REMARK    5  A    between atoms: C_10  and  C_11
REMARK    6  A    between atoms: N_13  and  C_14
REMARK    7  A    between atoms: C_14  and  C_15
REMARK    8  A    between atoms: C_15  and  C_16
REMARK    9  A    between atoms: C_16  and  C_17
REMARK   10  A    between atoms: C_17  and  N_18
REMARK   11  A    between atoms: C_19  and  C_21
REMARK   12  A    between atoms: C_22  and  C_23
REMARK   13  A    between atoms: C_25  and  O_30
REMARK   14  A    between atoms: C_26  and  O_29
REMARK   15  A    between atoms: O_30  and  C_31
REMARK                            x       y       z     vdW  Elec       q    Type
REMARK                         _______ _______ _______ _____ _____    ______ ____
ROOT
ATOM      1  C   UNL     1       5.341  -7.137   7.039  0.00  0.00    +0.020 C 
ENDROOT
BRANCH   1   2
ATOM      2  C   UNL     1       4.353  -6.317   6.226  0.00  0.00    +0.104 C 
BRANCH   2   5
ATOM      3  C   UNL     1       4.353  -4.508   4.434  0.00  0.00    +0.237 C 
ATOM      4  O   UNL     1       3.082  -4.508   4.434  0.00  0.00    -0.271 OA
ATOM      5  N   UNL     1       5.088  -5.412   5.330  0.00  0.00    -0.312 N 
ATOM      6  H   UNL     1       6.073  -5.412   5.330  0.00  0.00    +0.149 HD
BRANCH   3   8
ATOM      7  C   UNL     1       4.433  -2.736   2.678  0.00  0.00    +0.013 C 
ATOM      8  C   UNL     1       5.113  -3.573   3.507  0.00  0.00    +0.068 C 
BRANCH   7  13
ATOM      9  C   UNL     1       3.033   0.857  -0.882  0.00  0.00    +0.162 A 
ATOM     10  C   UNL     1       4.473   0.857  -0.882  0.00  0.00    +0.158 A 
ATOM     11  C   UNL     1       5.193  -0.029  -0.004  0.00  0.00    +0.050 A 
ATOM     12  C   UNL     1       4.473  -0.915   0.874  0.00  0.00    +0.012 A 
ATOM     13  C   UNL     1       5.193  -1.801   1.752  0.00  0.00    -0.021 A 
ATOM     14  C   UNL     1       2.313   1.743  -1.760  0.00  0.00    +0.057 A 
BRANCH   9  16
ATOM     15  C   UNL     1       0.903  -0.017  -0.017  0.00  0.00    +0.277 C 
ATOM     16  O   UNL     1       2.323  -0.017  -0.017  0.00  0.00    -0.491 OA
ENDBRANCH   9  16
BRANCH  10  17
ATOM     17  O   UNL     1       5.183   1.730  -1.748  0.00  0.00    -0.503 OA
ATOM     18  H   UNL     1       4.715   2.307  -2.319  0.00  0.00    +0.292 HD
ENDBRANCH  10  17
ENDBRANCH   7  13
ENDBRANCH   3   8
ENDBRANCH   2   5
ENDBRANCH   1   2
BRANCH   1  19
ATOM     19  C   UNL     1       4.581  -8.072   7.966  0.00  0.00    +0.020 C 
BRANCH  19  20
ATOM     20  C   UNL     1       5.569  -8.893   8.779  0.00  0.00    +0.104 C 
BRANCH  20  21
ATOM     21  N   UNL     1       4.834  -9.797   9.675  0.00  0.00    -0.312 N 
ATOM     22  C   UNL     1       5.569 -10.702  10.571  0.00  0.00    +0.237 C 
ATOM     23  O   UNL     1       6.840 -10.702  10.571  0.00  0.00    -0.271 OA
ATOM     24  H   UNL     1       3.849  -9.797   9.675  0.00  0.00    +0.149 HD
BRANCH  22  25
ATOM     25  C   UNL     1       4.809 -11.637  11.498  0.00  0.00    +0.068 C 
ATOM     26  C   UNL     1       5.489 -12.473  12.327  0.00  0.00    +0.013 C 
BRANCH  26  27
ATOM     27  C   UNL     1       4.729 -13.409  13.253  0.00  0.00    -0.021 A 
ATOM     28  C   UNL     1       5.449 -14.294  14.131  0.00  0.00    +0.057 A 
ATOM     29  C   UNL     1       4.729 -15.181  15.009  0.00  0.00    +0.162 A 
ATOM     30  C   UNL     1       3.289 -15.181  15.009  0.00  0.00    +0.158 A 
ATOM     31  C   UNL     1       2.569 -16.067  15.887  0.00  0.00    +0.050 A 
ATOM     32  C   UNL     1       3.289 -13.409  13.253  0.00  0.00    +0.012 A 
BRANCH  30  33
ATOM     33  O   UNL     1       2.579 -14.307  14.143  0.00  0.00    -0.503 OA
ATOM     34  H   UNL     1       3.047 -13.731  13.572  0.00  0.00    +0.292 HD
ENDBRANCH  30  33
BRANCH  29  35
ATOM     35  O   UNL     1       5.439 -16.054  15.875  0.00  0.00    -0.491 OA
ATOM     36  C   UNL     1       4.729 -16.928  16.740  0.00  0.00    +0.277 C 
ENDBRANCH  29  35
ENDBRANCH  26  27
ENDBRANCH  22  25
ENDBRANCH  20  21
ENDBRANCH  19  20
ENDBRANCH   1  19
TORSDOF 13
