REMARK  Name = 
REMARK  17 active torsions:
REMARK  status: ('A' for Active; 'I' for Inactive)
REMARK    1  A    between atoms: C_1  and  O_2
REMARK    2  A    between atoms: O_2  and  C_3
REMARK    3  A    between atoms: C_5  and  C_34
REMARK    4  A    between atoms: C_10  and  C_25
REMARK    5  A    between atoms: C_11  and  C_12
REMARK    6  A    between atoms: N_14  and  C_15
REMARK    7  A    between atoms: C_15  and  C_16
REMARK    8  A    between atoms: C_16  and  C_18
REMARK    9  A    between atoms: C_21  and  O_24
REMARK   10  A    between atoms: C_27  and  O_32
REMARK   11  A    between atoms: C_28  and  O_31
REMARK   12  A    between atoms: O_32  and  C_33
REMARK   13  A    between atoms: C_35  and  C_36
REMARK   14  A    between atoms: N_38  and  C_39
REMARK   15  A    between atoms: C_39  and  C_40
REMARK   16  A    between atoms: C_40  and  C_41
REMARK   17  A    between atoms: C_44  and  O_47
REMARK                            x       y       z     vdW  Elec       q    Type
REMARK                         _______ _______ _______ _____ _____    ______ ____
ROOT
ATOM      1  C   UNL     1       3.049   0.802   0.987  0.00  0.00    +0.162 A 
ATOM      2  C   UNL     1       4.489   0.802   0.987  0.00  0.00    +0.057 A 
ATOM      3  C   UNL     1       5.210   1.621   1.929  0.00  0.00    -0.021 A 
ATOM      4  C   UNL     1       4.489   2.438   2.871  0.00  0.00    +0.016 A 
ATOM      5  C   UNL     1       3.049   2.438   2.871  0.00  0.00    +0.014 A 
ATOM      6  C   UNL     1       0.526   5.568   4.581  0.00  0.00    +0.167 A 
ATOM      7  O   UNL     1       1.946   5.568   4.581  0.00  0.00    -0.479 OA
ATOM      8  C   UNL     1       2.656   4.761   3.652  0.00  0.00    +0.220 C 
ATOM      9  C   UNL     1       2.289   3.302   3.864  0.00  0.00    +0.153 C 
ENDROOT
BRANCH   8  10
ATOM     10  C   UNL     1       4.151   4.943   3.862  0.00  0.00    -0.003 A 
ATOM     11  C   UNL     1       4.745   6.247   3.716  0.00  0.00    +0.056 A 
ATOM     12  C   UNL     1       6.161   6.420   3.914  0.00  0.00    +0.162 A 
ATOM     13  C   UNL     1       6.983   5.289   4.259  0.00  0.00    +0.158 A 
ATOM     14  C   UNL     1       8.399   5.461   4.458  0.00  0.00    +0.049 A 
ATOM     15  C   UNL     1       4.973   3.812   4.207  0.00  0.00    +0.011 A 
BRANCH  13  16
ATOM     16  O   UNL     1       6.397   4.003   4.403  0.00  0.00    -0.503 OA
ATOM     17  H   UNL     1       5.476   3.891   4.274  0.00  0.00    +0.292 HD
ENDBRANCH  13  16
BRANCH  12  18
ATOM     18  O   UNL     1       6.747   7.705   3.771  0.00  0.00    -0.491 OA
ATOM     19  C   UNL     1       8.143   7.875   3.966  0.00  0.00    +0.277 C 
ENDBRANCH  12  18
ENDBRANCH   8  10
BRANCH   9  20
ATOM     20  C   UNL     1       0.795   3.119   3.655  0.00  0.00    +0.225 C 
ATOM     21  O   UNL     1       0.371   2.334   2.750  0.00  0.00    -0.275 OA
ATOM     22  N   UNL     1      -0.160   3.852   4.498  0.00  0.00    -0.307 N 
ATOM     23  H   UNL     1       0.168   4.461   5.199  0.00  0.00    +0.149 HD
BRANCH  22  24
ATOM     24  C   UNL     1      -1.606   3.676   4.295  0.00  0.00    +0.184 C 
BRANCH  24  25
ATOM     25  C   UNL     1      -2.366   4.539   5.289  0.00  0.00    +0.180 C 
ATOM     26  O   UNL     1      -1.730   5.261   6.120  0.00  0.00    -0.290 OA
BRANCH  25  27
ATOM     27  C   UNL     1      -3.886   4.539   5.289  0.00  0.00    +0.019 A 
ATOM     28  C   UNL     1      -4.606   5.357   6.231  0.00  0.00    +0.015 A 
ATOM     29  C   UNL     1      -6.046   5.357   6.231  0.00  0.00    +0.046 A 
ATOM     30  C   UNL     1      -6.766   6.175   7.173  0.00  0.00    +0.117 A 
ATOM     31  C   UNL     1      -6.046   6.993   8.114  0.00  0.00    +0.046 A 
ATOM     32  C   UNL     1      -4.606   3.721   4.348  0.00  0.00    +0.015 A 
BRANCH  30  33
ATOM     33  O   UNL     1      -8.186   6.175   7.173  0.00  0.00    -0.507 OA
ATOM     34  H   UNL     1      -8.655   5.643   6.560  0.00  0.00    +0.292 HD
ENDBRANCH  30  33
ENDBRANCH  25  27
ENDBRANCH  24  25
ENDBRANCH  22  24
ENDBRANCH   9  20
BRANCH   1  36
ATOM     35  C   UNL     1       0.919  -0.004   0.059  0.00  0.00    +0.277 C 
ATOM     36  O   UNL     1       2.339  -0.004   0.059  0.00  0.00    -0.491 OA
ENDBRANCH   1  36
BRANCH   3  37
ATOM     37  C   UNL     1       6.730   1.621   1.929  0.00  0.00    +0.013 C 
ATOM     38  C   UNL     1       7.410   2.393   2.818  0.00  0.00    +0.068 C 
BRANCH  38  39
ATOM     39  C   UNL     1       8.930   2.393   2.818  0.00  0.00    +0.237 C 
ATOM     40  O   UNL     1       9.565   1.671   1.988  0.00  0.00    -0.271 OA
ATOM     41  N   UNL     1       9.665   3.228   3.780  0.00  0.00    -0.312 N 
ATOM     42  H   UNL     1       9.173   3.787   4.423  0.00  0.00    +0.149 HD
BRANCH  41  43
ATOM     43  C   UNL     1      11.135   3.228   3.780  0.00  0.00    +0.109 C 
BRANCH  43  44
ATOM     44  C   UNL     1      11.642   4.168   4.861  0.00  0.00    +0.054 C 
BRANCH  44  45
ATOM     45  C   UNL     1      13.162   4.168   4.861  0.00  0.00    -0.046 A 
ATOM     46  C   UNL     1      13.882   4.986   5.803  0.00  0.00    +0.007 A 
ATOM     47  C   UNL     1      15.322   4.986   5.803  0.00  0.00    +0.045 A 
ATOM     48  C   UNL     1      16.042   5.803   6.745  0.00  0.00    +0.117 A 
ATOM     49  C   UNL     1      15.322   6.621   7.686  0.00  0.00    +0.045 A 
ATOM     50  C   UNL     1      13.882   3.350   3.920  0.00  0.00    +0.007 A 
BRANCH  48  51
ATOM     51  O   UNL     1      17.462   5.803   6.745  0.00  0.00    -0.507 OA
ATOM     52  H   UNL     1      17.930   5.271   6.132  0.00  0.00    +0.292 HD
ENDBRANCH  48  51
ENDBRANCH  44  45
ENDBRANCH  43  44
ENDBRANCH  41  43
ENDBRANCH  38  39
ENDBRANCH   3  37
TORSDOF 15
