REMARK  Name = 
REMARK  6 active torsions:
REMARK  status: ('A' for Active; 'I' for Inactive)
REMARK    1  A    between atoms: C_8  and  C_9
REMARK    2  A    between atoms: C_9  and  C_10
REMARK    3  A    between atoms: C_11  and  C_12
REMARK    4  A    between atoms: C_11  and  C_15
REMARK    5  A    between atoms: C_13  and  O_14
REMARK    6  A    between atoms: C_15  and  O_16
REMARK                            x       y       z     vdW  Elec       q    Type
REMARK                         _______ _______ _______ _____ _____    ______ ____
ROOT
ATOM      1  C   UNL     1       0.927  -0.008  -0.068  0.00  0.00    +0.010 A 
ATOM      2  C   UNL     1       2.367  -0.008  -0.068  0.00  0.00    +0.001 A 
ATOM      3  C   UNL     1       3.087  -0.764  -1.060  0.00  0.00    +0.002 A 
ATOM      4  C   UNL     1       4.527  -0.764  -1.060  0.00  0.00    +0.026 A 
ATOM      5  C   UNL     1       5.247  -1.520  -2.052  0.00  0.00    +0.048 A 
ATOM      6  N   UNL     1       6.640  -1.520  -2.052  0.00  0.00    -0.352 N 
ATOM      7  C   UNL     1       7.337  -2.251  -3.011  0.00  0.00    +0.073 A 
ATOM      8  C   UNL     1       8.777  -2.251  -3.011  0.00  0.00    +0.091 A 
ATOM      9  N   UNL     1       9.473  -2.982  -3.970  0.00  0.00    -0.253 NA
ATOM     10  C   UNL     1      10.866  -2.982  -3.970  0.00  0.00    +0.112 A 
ATOM     11  C   UNL     1      11.586  -3.738  -4.962  0.00  0.00    +0.030 A 
ATOM     12  C   UNL     1       6.616  -3.007  -4.003  0.00  0.00    +0.011 A 
ATOM     13  C   UNL     1       4.527  -2.276  -3.044  0.00  0.00    +0.008 A 
ATOM     14  H   UNL     1       7.132  -1.003  -1.373  0.00  0.00    +0.166 HD
ENDROOT
BRANCH   8  15
ATOM     15  C   UNL     1       9.537  -1.453  -1.964  0.00  0.00    -0.018 C 
ATOM     16  C   UNL     1      11.057  -1.453  -1.964  0.00  0.00    +0.046 C 
ATOM     17  C   UNL     1       8.857  -0.739  -1.027  0.00  0.00    -0.014 C 
BRANCH  17  18
ATOM     18  C   UNL     1       9.617   0.059   0.020  0.00  0.00    +0.043 C 
ATOM     19  C   UNL     1      10.977   0.059   0.020  0.00  0.00    +0.183 C 
BRANCH  19  20
ATOM     20  O   UNL     1      11.687   0.804   0.998  0.00  0.00    -0.514 OA
ATOM     21  H   UNL     1      11.218   1.296   1.644  0.00  0.00    +0.291 HD
ENDBRANCH  19  20
ENDBRANCH  17  18
BRANCH  17  22
ATOM     22  C   UNL     1       7.337  -0.739  -1.027  0.00  0.00    +0.191 C 
BRANCH  22  23
ATOM     23  O   UNL     1       6.863   0.072   0.038  0.00  0.00    -0.390 OA
ATOM     24  H   UNL     1       7.186  -0.280   0.882  0.00  0.00    +0.210 HD
ENDBRANCH  22  23
ENDBRANCH  17  22
ENDBRANCH   8  15
TORSDOF 5
