REMARK  Name = 
REMARK  4 active torsions:
REMARK  status: ('A' for Active; 'I' for Inactive)
REMARK    1  A    between atoms: C_1  and  O_2
REMARK    2  A    between atoms: O_2  and  C_3
REMARK    3  A    between atoms: C_4  and  O_11
REMARK    4  A    between atoms: C_7  and  C_9
REMARK                            x       y       z     vdW  Elec       q    Type
REMARK                         _______ _______ _______ _____ _____    ______ ____
ROOT
ATOM      1  C   UNL     1       3.079   1.139  -0.297  0.00  0.00    +0.162 A 
ATOM      2  C   UNL     1       4.519   1.139  -0.297  0.00  0.00    +0.158 A 
ATOM      3  C   UNL     1       5.239  -0.083  -0.051  0.00  0.00    +0.050 A 
ATOM      4  C   UNL     1       4.519  -1.306   0.195  0.00  0.00    +0.015 A 
ATOM      5  C   UNL     1       5.239  -2.529   0.441  0.00  0.00    +0.018 A 
ATOM      6  C   UNL     1       2.358   2.362  -0.543  0.00  0.00    +0.060 A 
ENDROOT
BRANCH   1   8
ATOM      7  C   UNL     1       0.949  -0.066  -0.054  0.00  0.00    +0.277 C 
ATOM      8  O   UNL     1       2.369  -0.066  -0.054  0.00  0.00    -0.491 OA
ENDBRANCH   1   8
BRANCH   5   9
ATOM      9  C   UNL     1       4.479  -3.820   0.700  0.00  0.00    +0.258 C 
ATOM     10  O   UNL     1       5.114  -4.899   0.917  0.00  0.00    -0.296 OA
ENDBRANCH   5   9
BRANCH   2  11
ATOM     11  O   UNL     1       5.229   2.345  -0.539  0.00  0.00    -0.503 OA
ATOM     12  H   UNL     1       4.760   3.141  -0.699  0.00  0.00    +0.292 HD
ENDBRANCH   2  11
TORSDOF 3
