MODEL 1
REMARK VINA RESULT:      -7.8      0.000      0.000
REMARK  Name = 
REMARK  4 active torsions:
REMARK  status: ('A' for Active; 'I' for Inactive)
REMARK    1  A    between atoms: C_1  and  C_2
REMARK    2  A    between atoms: C_6  and  C_29
REMARK    3  A    between atoms: C_12  and  C_28
REMARK    4  A    between atoms: C_26  and  C_27
REMARK                            x       y       z     vdW  Elec       q    Type
REMARK                         _______ _______ _______ _____ _____    ______ ____
ROOT
ATOM      1  C   UNL     1      51.087  13.360  18.020  0.00  0.00    +0.010 C 
ATOM      2  C   UNL     1      49.738  13.722  18.619  0.00  0.00    +0.012 C 
ATOM      3  C   UNL     1      47.631  13.162  22.473  0.00  0.00    +0.011 C 
ATOM      4  C   UNL     1      46.699  12.838  21.317  0.00  0.00    +0.065 C 
ATOM      5  C   UNL     1      47.298  11.717  20.482  0.00  0.00    +0.173 C 
ATOM      6  C   UNL     1      47.479  10.481  21.348  0.00  0.00    +0.052 C 
ATOM      7  C   UNL     1      48.411  10.806  22.504  0.00  0.00    +0.039 C 
ATOM      8  C   UNL     1      44.518  19.909  15.359  0.00  0.00    +0.126 C 
ATOM      9  O   UNL     1      46.428  11.414  19.401  0.00  0.00    -0.345 OA
ATOM     10  C   UNL     1      43.986  18.674  16.069  0.00  0.00    +0.036 C 
ATOM     11  C   UNL     1      45.136  17.724  16.362  0.00  0.00    +0.008 C 
ATOM     12  C   UNL     1      49.760  11.245  21.960  0.00  0.00    +0.035 C 
ATOM     13  C   UNL     1      49.579  12.481  21.093  0.00  0.00    +0.140 C 
ATOM     14  O   UNL     1      50.172  13.563  21.397  0.00  0.00    -0.297 OA
ATOM     15  C   UNL     1      48.688  12.422  19.864  0.00  0.00    +0.079 C 
ATOM     16  C   UNL     1      48.678  13.780  19.180  0.00  0.00    +0.009 C 
ATOM     17  C   UNL     1      44.605  16.489  17.071  0.00  0.00    -0.002 C 
ATOM     18  C   UNL     1      45.754  15.539  17.363  0.00  0.00    +0.008 C 
ATOM     19  C   UNL     1      45.223  14.304  18.074  0.00  0.00    +0.032 C 
ATOM     20  C   UNL     1      46.372  13.354  18.366  0.00  0.00    -0.060 C 
ATOM     21  C   UNL     1      46.135  12.174  19.001  0.00  0.00    +0.046 C 
ATOM     22  C   UNL     1      44.720  11.806  19.417  0.00  0.00    +0.156 C 
ATOM     23  O   UNL     1      43.759  12.601  19.172  0.00  0.00    -0.293 OA
ATOM     24  C   UNL     1      44.455  10.488  20.125  0.00  0.00    +0.080 C 
ATOM     25  C   UNL     1      48.321  12.673  16.986  0.00  0.00    +0.019 C 
ATOM     26  C   UNL     1      47.787  13.721  17.949  0.00  0.00    -0.007 C 
ATOM     27  C   UNL     1      47.777  15.079  17.266  0.00  0.00    +0.016 C 
ATOM     28  C   UNL     1      50.692  11.570  23.116  0.00  0.00    +0.020 C 
ATOM     29  C   UNL     1      48.078   9.361  20.514  0.00  0.00    +0.013 C 
ATOM     30  O   UNL     1      48.558  12.128  19.973  0.00  0.00    -0.348 OA
ATOM     31  C   UNL     1      48.388  13.282  19.163  0.00  0.00    +0.166 C 
ENDROOT
TORSDOF 0
ENDMDL
MODEL 2
REMARK VINA RESULT:      -7.6      2.403      4.279
REMARK  Name = 
REMARK  4 active torsions:
REMARK  status: ('A' for Active; 'I' for Inactive)
REMARK    1  A    between atoms: C_1  and  C_2
REMARK    2  A    between atoms: C_6  and  C_29
REMARK    3  A    between atoms: C_12  and  C_28
REMARK    4  A    between atoms: C_26  and  C_27
REMARK                            x       y       z     vdW  Elec       q    Type
REMARK                         _______ _______ _______ _____ _____    ______ ____
ROOT
ATOM      1  C   UNL     1      48.976   8.495  17.676  0.00  0.00    +0.010 C 
ATOM      2  C   UNL     1      48.903   9.942  18.130  0.00  0.00    +0.012 C 
ATOM      3  C   UNL     1      47.268  12.199  21.571  0.00  0.00    +0.011 C 
ATOM      4  C   UNL     1      46.906  12.898  20.270  0.00  0.00    +0.065 C 
ATOM      5  C   UNL     1      46.105  11.950  19.392  0.00  0.00    +0.173 C 
ATOM      6  C   UNL     1      44.834  11.540  20.117  0.00  0.00    +0.052 C 
ATOM      7  C   UNL     1      45.196  10.841  21.417  0.00  0.00    +0.039 C 
ATOM      8  C   UNL     1      54.057  16.245  14.985  0.00  0.00    +0.126 C 
ATOM      9  O   UNL     1      45.768  12.601  18.176  0.00  0.00    -0.345 OA
ATOM     10  C   UNL     1      52.637  16.505  15.462  0.00  0.00    +0.036 C 
ATOM     11  C   UNL     1      51.961  15.182  15.786  0.00  0.00    +0.008 C 
ATOM     12  C   UNL     1      46.028   9.606  21.116  0.00  0.00    +0.035 C 
ATOM     13  C   UNL     1      47.299  10.016  20.390  0.00  0.00    +0.140 C 
ATOM     14  O   UNL     1      48.434   9.757  20.901  0.00  0.00    -0.297 OA
ATOM     15  C   UNL     1      47.213  10.737  19.055  0.00  0.00    +0.079 C 
ATOM     16  C   UNL     1      48.616  11.031  18.547  0.00  0.00    +0.009 C 
ATOM     17  C   UNL     1      50.542  15.441  16.262  0.00  0.00    -0.002 C 
ATOM     18  C   UNL     1      49.866  14.119  16.586  0.00  0.00    +0.008 C 
ATOM     19  C   UNL     1      48.446  14.379  17.064  0.00  0.00    +0.032 C 
ATOM     20  C   UNL     1      47.771  13.057  17.388  0.00  0.00    -0.060 C 
ATOM     21  C   UNL     1      46.486  13.041  17.836  0.00  0.00    +0.046 C 
ATOM     22  C   UNL     1      45.726  14.345  18.012  0.00  0.00    +0.156 C 
ATOM     23  O   UNL     1      46.291  15.451  17.740  0.00  0.00    -0.293 OA
ATOM     24  C   UNL     1      44.291  14.327  18.512  0.00  0.00    +0.080 C 
ATOM     25  C   UNL     1      47.802  10.873  16.207  0.00  0.00    +0.019 C 
ATOM     26  C   UNL     1      48.530  11.751  17.211  0.00  0.00    -0.007 C 
ATOM     27  C   UNL     1      49.932  12.046  16.704  0.00  0.00    +0.016 C 
ATOM     28  C   UNL     1      46.390   8.909  22.417  0.00  0.00    +0.020 C 
ATOM     29  C   UNL     1      44.034  10.592  19.239  0.00  0.00    +0.013 C 
ATOM     30  O   UNL     1      46.883  10.796  19.109  0.00  0.00    -0.348 OA
ATOM     31  C   UNL     1      48.071  11.179  18.431  0.00  0.00    +0.166 C 
ENDROOT
TORSDOF 0
ENDMDL
MODEL 3
REMARK VINA RESULT:      -7.4     13.395     16.327
REMARK  Name = 
REMARK  4 active torsions:
REMARK  status: ('A' for Active; 'I' for Inactive)
REMARK    1  A    between atoms: C_1  and  C_2
REMARK    2  A    between atoms: C_6  and  C_29
REMARK    3  A    between atoms: C_12  and  C_28
REMARK    4  A    between atoms: C_26  and  C_27
REMARK                            x       y       z     vdW  Elec       q    Type
REMARK                         _______ _______ _______ _____ _____    ______ ____
ROOT
ATOM      1  C   UNL     1      35.437  11.253   5.441  0.00  0.00    +0.010 C 
ATOM      2  C   UNL     1      36.733  11.059   6.211  0.00  0.00    +0.012 C 
ATOM      3  C   UNL     1      38.665  12.748   9.819  0.00  0.00    +0.011 C 
ATOM      4  C   UNL     1      39.671  12.657   8.683  0.00  0.00    +0.065 C 
ATOM      5  C   UNL     1      39.173  13.473   7.500  0.00  0.00    +0.173 C 
ATOM      6  C   UNL     1      39.010  14.925   7.918  0.00  0.00    +0.052 C 
ATOM      7  C   UNL     1      38.004  15.015   9.054  0.00  0.00    +0.039 C 
ATOM      8  C   UNL     1      41.793   3.992   5.417  0.00  0.00    +0.126 C 
ATOM      9  O   UNL     1      40.112  13.388   6.438  0.00  0.00    -0.345 OA
ATOM     10  C   UNL     1      42.349   5.371   5.734  0.00  0.00    +0.036 C 
ATOM     11  C   UNL     1      41.236   6.402   5.636  0.00  0.00    +0.008 C 
ATOM     12  C   UNL     1      36.665  14.469   8.590  0.00  0.00    +0.035 C 
ATOM     13  C   UNL     1      36.828  13.016   8.171  0.00  0.00    +0.140 C 
ATOM     14  O   UNL     1      36.165  12.106   8.762  0.00  0.00    -0.297 OA
ATOM     15  C   UNL     1      37.783  12.652   7.047  0.00  0.00    +0.079 C 
ATOM     16  C   UNL     1      37.759  11.147   6.828  0.00  0.00    +0.009 C 
ATOM     17  C   UNL     1      41.792   7.780   5.952  0.00  0.00    -0.002 C 
ATOM     18  C   UNL     1      40.679   8.810   5.854  0.00  0.00    +0.008 C 
ATOM     19  C   UNL     1      41.235  10.189   6.172  0.00  0.00    +0.032 C 
ATOM     20  C   UNL     1      40.122  11.219   6.074  0.00  0.00    -0.060 C 
ATOM     21  C   UNL     1      40.386  12.531   6.318  0.00  0.00    +0.046 C 
ATOM     22  C   UNL     1      41.794  12.967   6.687  0.00  0.00    +0.156 C 
ATOM     23  O   UNL     1      42.725  12.106   6.769  0.00  0.00    -0.293 OA
ATOM     24  C   UNL     1      42.090  14.433   6.959  0.00  0.00    +0.080 C 
ATOM     25  C   UNL     1      38.284  11.487   4.426  0.00  0.00    +0.019 C 
ATOM     26  C   UNL     1      38.713  10.783   5.703  0.00  0.00    -0.007 C 
ATOM     27  C   UNL     1      38.689   9.279   5.486  0.00  0.00    +0.016 C 
ATOM     28  C   UNL     1      35.660  14.558   9.726  0.00  0.00    +0.020 C 
ATOM     29  C   UNL     1      38.513  15.740   6.736  0.00  0.00    +0.013 C 
ATOM     30  O   UNL     1      37.922  12.962   7.065  0.00  0.00    -0.348 OA
ATOM     31  C   UNL     1      38.074  11.605   6.675  0.00  0.00    +0.166 C 
ENDROOT
TORSDOF 0
ENDMDL
MODEL 4
REMARK VINA RESULT:      -7.3     13.701     17.158
REMARK  Name = 
REMARK  4 active torsions:
REMARK  status: ('A' for Active; 'I' for Inactive)
REMARK    1  A    between atoms: C_1  and  C_2
REMARK    2  A    between atoms: C_6  and  C_29
REMARK    3  A    between atoms: C_12  and  C_28
REMARK    4  A    between atoms: C_26  and  C_27
REMARK                            x       y       z     vdW  Elec       q    Type
REMARK                         _______ _______ _______ _____ _____    ______ ____
ROOT
ATOM      1  C   UNL     1      39.906  12.455   9.389  0.00  0.00    +0.010 C 
ATOM      2  C   UNL     1      39.041  12.600   8.149  0.00  0.00    +0.012 C 
ATOM      3  C   UNL     1      36.986  15.865   5.975  0.00  0.00    +0.011 C 
ATOM      4  C   UNL     1      36.057  14.671   6.122  0.00  0.00    +0.065 C 
ATOM      5  C   UNL     1      35.869  14.355   7.598  0.00  0.00    +0.173 C 
ATOM      6  C   UNL     1      35.263  15.559   8.300  0.00  0.00    +0.052 C 
ATOM      7  C   UNL     1      36.193  16.753   8.152  0.00  0.00    +0.039 C 
ATOM      8  C   UNL     1      38.622   6.592   1.833  0.00  0.00    +0.126 C 
ATOM      9  O   UNL     1      35.001  13.240   7.736  0.00  0.00    -0.345 OA
ATOM     10  C   UNL     1      37.448   7.487   2.195  0.00  0.00    +0.036 C 
ATOM     11  C   UNL     1      37.792   8.296   3.436  0.00  0.00    +0.008 C 
ATOM     12  C   UNL     1      37.539  16.427   8.777  0.00  0.00    +0.035 C 
ATOM     13  C   UNL     1      38.145  15.223   8.074  0.00  0.00    +0.140 C 
ATOM     14  O   UNL     1      39.267  15.328   7.486  0.00  0.00    -0.297 OA
ATOM     15  C   UNL     1      37.409  13.893   8.073  0.00  0.00    +0.079 C 
ATOM     16  C   UNL     1      38.224  12.863   7.309  0.00  0.00    +0.009 C 
ATOM     17  C   UNL     1      36.619   9.191   3.799  0.00  0.00    -0.002 C 
ATOM     18  C   UNL     1      36.962  10.000   5.039  0.00  0.00    +0.008 C 
ATOM     19  C   UNL     1      35.789  10.896   5.401  0.00  0.00    +0.032 C 
ATOM     20  C   UNL     1      36.133  11.704   6.641  0.00  0.00    -0.060 C 
ATOM     21  C   UNL     1      35.228  12.581   7.155  0.00  0.00    +0.046 C 
ATOM     22  C   UNL     1      33.873  12.752   6.488  0.00  0.00    +0.156 C 
ATOM     23  O   UNL     1      33.585  12.076   5.451  0.00  0.00    -0.293 OA
ATOM     24  C   UNL     1      32.862  13.731   7.061  0.00  0.00    +0.080 C 
ATOM     25  C   UNL     1      37.292  11.062   8.741  0.00  0.00    +0.019 C 
ATOM     26  C   UNL     1      37.488  11.532   7.309  0.00  0.00    -0.007 C 
ATOM     27  C   UNL     1      38.303  10.503   6.544  0.00  0.00    +0.016 C 
ATOM     28  C   UNL     1      38.468  17.620   8.628  0.00  0.00    +0.020 C 
ATOM     29  C   UNL     1      35.075  15.243   9.775  0.00  0.00    +0.013 C 
ATOM     30  O   UNL     1      37.127  14.050   8.181  0.00  0.00    -0.348 OA
ATOM     31  C   UNL     1      37.693  12.925   7.524  0.00  0.00    +0.166 C 
ENDROOT
TORSDOF 0
ENDMDL
MODEL 5
REMARK VINA RESULT:      -7.3     13.435     16.889
REMARK  Name = 
REMARK  4 active torsions:
REMARK  status: ('A' for Active; 'I' for Inactive)
REMARK    1  A    between atoms: C_1  and  C_2
REMARK    2  A    between atoms: C_6  and  C_29
REMARK    3  A    between atoms: C_12  and  C_28
REMARK    4  A    between atoms: C_26  and  C_27
REMARK                            x       y       z     vdW  Elec       q    Type
REMARK                         _______ _______ _______ _____ _____    ______ ____
ROOT
ATOM      1  C   UNL     1      37.898  17.430   8.079  0.00  0.00    +0.010 C 
ATOM      2  C   UNL     1      36.905  16.294   8.251  0.00  0.00    +0.012 C 
ATOM      3  C   UNL     1      36.998  12.042   9.483  0.00  0.00    +0.011 C 
ATOM      4  C   UNL     1      36.147  12.204   8.234  0.00  0.00    +0.065 C 
ATOM      5  C   UNL     1      36.990  12.806   7.121  0.00  0.00    +0.173 C 
ATOM      6  C   UNL     1      38.162  11.886   6.820  0.00  0.00    +0.052 C 
ATOM      7  C   UNL     1      39.013  11.724   8.069  0.00  0.00    +0.039 C 
ATOM      8  C   UNL     1      28.290  17.495   8.969  0.00  0.00    +0.126 C 
ATOM      9  O   UNL     1      36.195  12.959   5.954  0.00  0.00    -0.345 OA
ATOM     10  C   UNL     1      28.898  16.254   8.333  0.00  0.00    +0.036 C 
ATOM     11  C   UNL     1      30.402  16.432   8.213  0.00  0.00    +0.008 C 
ATOM     12  C   UNL     1      39.534  13.083   8.507  0.00  0.00    +0.035 C 
ATOM     13  C   UNL     1      38.362  14.002   8.808  0.00  0.00    +0.140 C 
ATOM     14  O   UNL     1      38.225  14.497   9.971  0.00  0.00    -0.297 OA
ATOM     15  C   UNL     1      37.354  14.330   7.720  0.00  0.00    +0.079 C 
ATOM     16  C   UNL     1      36.290  15.262   8.278  0.00  0.00    +0.009 C 
ATOM     17  C   UNL     1      31.010  15.193   7.578  0.00  0.00    -0.002 C 
ATOM     18  C   UNL     1      32.515  15.370   7.457  0.00  0.00    +0.008 C 
ATOM     19  C   UNL     1      33.122  14.130   6.823  0.00  0.00    +0.032 C 
ATOM     20  C   UNL     1      34.627  14.308   6.702  0.00  0.00    -0.060 C 
ATOM     21  C   UNL     1      35.388  13.318   6.159  0.00  0.00    +0.046 C 
ATOM     22  C   UNL     1      34.733  12.036   5.673  0.00  0.00    +0.156 C 
ATOM     23  O   UNL     1      33.475  11.888   5.773  0.00  0.00    -0.293 OA
ATOM     24  C   UNL     1      35.582  10.932   5.066  0.00  0.00    +0.080 C 
ATOM     25  C   UNL     1      35.992  16.269   6.028  0.00  0.00    +0.019 C 
ATOM     26  C   UNL     1      35.282  15.591   7.188  0.00  0.00    -0.007 C 
ATOM     27  C   UNL     1      34.219  16.522   7.747  0.00  0.00    +0.016 C 
ATOM     28  C   UNL     1      40.384  12.920   9.756  0.00  0.00    +0.020 C 
ATOM     29  C   UNL     1      39.005  12.489   5.708  0.00  0.00    +0.013 C 
ATOM     30  O   UNL     1      37.477  14.076   7.530  0.00  0.00    -0.348 OA
ATOM     31  C   UNL     1      36.382  14.935   7.812  0.00  0.00    +0.166 C 
ENDROOT
TORSDOF 0
ENDMDL
MODEL 6
REMARK VINA RESULT:      -7.2      2.316      6.251
REMARK  Name = 
REMARK  4 active torsions:
REMARK  status: ('A' for Active; 'I' for Inactive)
REMARK    1  A    between atoms: C_1  and  C_2
REMARK    2  A    between atoms: C_6  and  C_29
REMARK    3  A    between atoms: C_12  and  C_28
REMARK    4  A    between atoms: C_26  and  C_27
REMARK                            x       y       z     vdW  Elec       q    Type
REMARK                         _______ _______ _______ _____ _____    ______ ____
ROOT
ATOM      1  C   UNL     1      44.469  14.429  18.540  0.00  0.00    +0.010 C 
ATOM      2  C   UNL     1      45.874  14.108  19.020  0.00  0.00    +0.012 C 
ATOM      3  C   UNL     1      49.904  13.666  17.240  0.00  0.00    +0.011 C 
ATOM      4  C   UNL     1      49.631  12.522  18.204  0.00  0.00    +0.065 C 
ATOM      5  C   UNL     1      48.393  11.764  17.752  0.00  0.00    +0.173 C 
ATOM      6  C   UNL     1      48.621  11.207  16.356  0.00  0.00    +0.052 C 
ATOM      7  C   UNL     1      48.894  12.352  15.393  0.00  0.00    +0.039 C 
ATOM      8  C   UNL     1      48.377  14.735  27.357  0.00  0.00    +0.126 C 
ATOM      9  O   UNL     1      48.137  10.696  18.652  0.00  0.00    -0.345 OA
ATOM     10  C   UNL     1      48.969  13.718  26.395  0.00  0.00    +0.036 C 
ATOM     11  C   UNL     1      48.204  13.757  25.082  0.00  0.00    +0.008 C 
ATOM     12  C   UNL     1      47.702  13.294  15.374  0.00  0.00    +0.035 C 
ATOM     13  C   UNL     1      47.474  13.850  16.770  0.00  0.00    +0.140 C 
ATOM     14  O   UNL     1      47.530  15.104  16.972  0.00  0.00    -0.297 OA
ATOM     15  C   UNL     1      47.179  12.908  17.925  0.00  0.00    +0.079 C 
ATOM     16  C   UNL     1      46.993  13.713  19.202  0.00  0.00    +0.009 C 
ATOM     17  C   UNL     1      48.795  12.741  24.120  0.00  0.00    -0.002 C 
ATOM     18  C   UNL     1      48.031  12.780  22.807  0.00  0.00    +0.008 C 
ATOM     19  C   UNL     1      48.623  11.764  21.844  0.00  0.00    +0.032 C 
ATOM     20  C   UNL     1      47.858  11.804  20.532  0.00  0.00    -0.060 C 
ATOM     21  C   UNL     1      48.212  10.974  19.512  0.00  0.00    +0.046 C 
ATOM     22  C   UNL     1      49.372  10.008  19.687  0.00  0.00    +0.156 C 
ATOM     23  O   UNL     1      50.011   9.975  20.785  0.00  0.00    -0.293 OA
ATOM     24  C   UNL     1      49.767   9.081  18.549  0.00  0.00    +0.080 C 
ATOM     25  C   UNL     1      45.427  11.988  20.062  0.00  0.00    +0.019 C 
ATOM     26  C   UNL     1      46.697  12.770  20.357  0.00  0.00    -0.007 C 
ATOM     27  C   UNL     1      46.512  13.575  21.633  0.00  0.00    +0.016 C 
ATOM     28  C   UNL     1      47.975  14.438  14.412  0.00  0.00    +0.020 C 
ATOM     29  C   UNL     1      47.383  10.451  15.905  0.00  0.00    +0.013 C 
ATOM     30  O   UNL     1      47.279  12.645  17.735  0.00  0.00    -0.348 OA
ATOM     31  C   UNL     1      47.066  13.164  19.039  0.00  0.00    +0.166 C 
ENDROOT
TORSDOF 0
ENDMDL
MODEL 7
REMARK VINA RESULT:      -7.2     40.826     43.227
REMARK  Name = 
REMARK  4 active torsions:
REMARK  status: ('A' for Active; 'I' for Inactive)
REMARK    1  A    between atoms: C_1  and  C_2
REMARK    2  A    between atoms: C_6  and  C_29
REMARK    3  A    between atoms: C_12  and  C_28
REMARK    4  A    between atoms: C_26  and  C_27
REMARK                            x       y       z     vdW  Elec       q    Type
REMARK                         _______ _______ _______ _____ _____    ______ ____
ROOT
ATOM      1  C   UNL     1      11.520  -6.686  15.520  0.00  0.00    +0.010 C 
ATOM      2  C   UNL     1      10.194  -5.964  15.681  0.00  0.00    +0.012 C 
ATOM      3  C   UNL     1       6.137  -6.167  13.918  0.00  0.00    +0.011 C 
ATOM      4  C   UNL     1       6.598  -4.721  14.001  0.00  0.00    +0.065 C 
ATOM      5  C   UNL     1       7.884  -4.553  13.207  0.00  0.00    +0.173 C 
ATOM      6  C   UNL     1       7.635  -4.924  11.754  0.00  0.00    +0.052 C 
ATOM      7  C   UNL     1       7.174  -6.370  11.672  0.00  0.00    +0.039 C 
ATOM      8  C   UNL     1       8.158  -1.129  22.656  0.00  0.00    +0.126 C 
ATOM      9  O   UNL     1       8.315  -3.203  13.284  0.00  0.00    -0.345 OA
ATOM     10  C   UNL     1       7.627  -0.828  21.263  0.00  0.00    +0.036 C 
ATOM     11  C   UNL     1       8.299  -1.746  20.256  0.00  0.00    +0.008 C 
ATOM     12  C   UNL     1       8.247  -7.277  12.249  0.00  0.00    +0.035 C 
ATOM     13  C   UNL     1       8.497  -6.907  13.702  0.00  0.00    +0.140 C 
ATOM     14  O   UNL     1       8.311  -7.768  14.619  0.00  0.00    -0.297 OA
ATOM     15  C   UNL     1       8.968  -5.507  14.059  0.00  0.00    +0.079 C 
ATOM     16  C   UNL     1       9.140  -5.399  15.566  0.00  0.00    +0.009 C 
ATOM     17  C   UNL     1       7.769  -1.446  18.864  0.00  0.00    -0.002 C 
ATOM     18  C   UNL     1       8.441  -2.365  17.856  0.00  0.00    +0.008 C 
ATOM     19  C   UNL     1       7.910  -2.065  16.464  0.00  0.00    +0.032 C 
ATOM     20  C   UNL     1       8.582  -2.983  15.457  0.00  0.00    -0.060 C 
ATOM     21  C   UNL     1       8.262  -2.896  14.137  0.00  0.00    +0.046 C 
ATOM     22  C   UNL     1       7.233  -1.879  13.670  0.00  0.00    +0.156 C 
ATOM     23  O   UNL     1       6.671  -1.112  14.512  0.00  0.00    -0.293 OA
ATOM     24  C   UNL     1       6.876  -1.781  12.196  0.00  0.00    +0.080 C 
ATOM     25  C   UNL     1      10.943  -3.723  15.241  0.00  0.00    +0.019 C 
ATOM     26  C   UNL     1       9.613  -3.999  15.923  0.00  0.00    -0.007 C 
ATOM     27  C   UNL     1       9.784  -3.891  17.429  0.00  0.00    +0.016 C 
ATOM     28  C   UNL     1       7.786  -8.723  12.168  0.00  0.00    +0.020 C 
ATOM     29  C   UNL     1       8.920  -4.756  10.961  0.00  0.00    +0.013 C 
ATOM     30  O   UNL     1       8.887  -5.401  13.747  0.00  0.00    -0.348 OA
ATOM     31  C   UNL     1       9.120  -5.055  15.104  0.00  0.00    +0.166 C 
ENDROOT
TORSDOF 0
ENDMDL
MODEL 8
REMARK VINA RESULT:      -7.1     50.394     53.799
REMARK  Name = 
REMARK  4 active torsions:
REMARK  status: ('A' for Active; 'I' for Inactive)
REMARK    1  A    between atoms: C_1  and  C_2
REMARK    2  A    between atoms: C_6  and  C_29
REMARK    3  A    between atoms: C_12  and  C_28
REMARK    4  A    between atoms: C_26  and  C_27
REMARK                            x       y       z     vdW  Elec       q    Type
REMARK                         _______ _______ _______ _____ _____    ______ ____
ROOT
ATOM      1  C   UNL     1      -8.888   3.130  16.704  0.00  0.00    +0.010 C 
ATOM      2  C   UNL     1      -7.666   3.815  17.292  0.00  0.00    +0.012 C 
ATOM      3  C   UNL     1      -6.186   7.956  17.807  0.00  0.00    +0.011 C 
ATOM      4  C   UNL     1      -5.069   7.064  17.289  0.00  0.00    +0.065 C 
ATOM      5  C   UNL     1      -5.487   6.448  15.963  0.00  0.00    +0.173 C 
ATOM      6  C   UNL     1      -5.762   7.553  14.955  0.00  0.00    +0.052 C 
ATOM      7  C   UNL     1      -6.879   8.444  15.474  0.00  0.00    +0.039 C 
ATOM      8  C   UNL     1      -2.209  -0.046  22.903  0.00  0.00    +0.126 C 
ATOM      9  O   UNL     1      -4.445   5.614  15.479  0.00  0.00    -0.345 OA
ATOM     10  C   UNL     1      -1.756   1.013  21.911  0.00  0.00    +0.036 C 
ATOM     11  C   UNL     1      -2.903   1.355  20.975  0.00  0.00    +0.008 C 
ATOM     12  C   UNL     1      -8.137   7.617  15.674  0.00  0.00    +0.035 C 
ATOM     13  C   UNL     1      -7.862   6.513  16.682  0.00  0.00    +0.140 C 
ATOM     14  O   UNL     1      -8.534   6.453  17.759  0.00  0.00    -0.297 OA
ATOM     15  C   UNL     1      -6.784   5.479  16.401  0.00  0.00    +0.079 C 
ATOM     16  C   UNL     1      -6.712   4.494  17.557  0.00  0.00    +0.009 C 
ATOM     17  C   UNL     1      -2.450   2.414  19.983  0.00  0.00    -0.002 C 
ATOM     18  C   UNL     1      -3.598   2.756  19.047  0.00  0.00    +0.008 C 
ATOM     19  C   UNL     1      -3.145   3.816  18.056  0.00  0.00    +0.032 C 
ATOM     20  C   UNL     1      -4.292   4.158  17.120  0.00  0.00    -0.060 C 
ATOM     21  C   UNL     1      -4.119   5.088  16.142  0.00  0.00    +0.046 C 
ATOM     22  C   UNL     1      -2.777   5.785  15.986  0.00  0.00    +0.156 C 
ATOM     23  O   UNL     1      -1.817   5.499  16.768  0.00  0.00    -0.293 OA
ATOM     24  C   UNL     1      -2.583   6.824  14.894  0.00  0.00    +0.080 C 
ATOM     25  C   UNL     1      -5.969   2.713  15.995  0.00  0.00    +0.019 C 
ATOM     26  C   UNL     1      -5.634   3.460  17.276  0.00  0.00    -0.007 C 
ATOM     27  C   UNL     1      -5.562   2.477  18.432  0.00  0.00    +0.016 C 
ATOM     28  C   UNL     1      -9.253   8.509  16.194  0.00  0.00    +0.020 C 
ATOM     29  C   UNL     1      -6.181   6.937  13.631  0.00  0.00    +0.013 C 
ATOM     30  O   UNL     1      -6.663   5.674  16.150  0.00  0.00    -0.348 OA
ATOM     31  C   UNL     1      -6.406   4.643  17.092  0.00  0.00    +0.166 C 
ENDROOT
TORSDOF 0
ENDMDL
MODEL 9
REMARK VINA RESULT:      -7.1     14.247     17.281
REMARK  Name = 
REMARK  4 active torsions:
REMARK  status: ('A' for Active; 'I' for Inactive)
REMARK    1  A    between atoms: C_1  and  C_2
REMARK    2  A    between atoms: C_6  and  C_29
REMARK    3  A    between atoms: C_12  and  C_28
REMARK    4  A    between atoms: C_26  and  C_27
REMARK                            x       y       z     vdW  Elec       q    Type
REMARK                         _______ _______ _______ _____ _____    ______ ____
ROOT
ATOM      1  C   UNL     1      38.417  16.474   5.812  0.00  0.00    +0.010 C 
ATOM      2  C   UNL     1      37.736  15.194   6.267  0.00  0.00    +0.012 C 
ATOM      3  C   UNL     1      38.945  11.280   7.948  0.00  0.00    +0.011 C 
ATOM      4  C   UNL     1      37.925  11.079   6.838  0.00  0.00    +0.065 C 
ATOM      5  C   UNL     1      38.461  11.673   5.545  0.00  0.00    +0.173 C 
ATOM      6  C   UNL     1      39.762  10.981   5.170  0.00  0.00    +0.052 C 
ATOM      7  C   UNL     1      40.780  11.183   6.280  0.00  0.00    +0.039 C 
ATOM      8  C   UNL     1      29.239  14.680   8.189  0.00  0.00    +0.126 C 
ATOM      9  O   UNL     1      37.509  11.486   4.508  0.00  0.00    -0.345 OA
ATOM     10  C   UNL     1      30.024  13.513   7.613  0.00  0.00    +0.036 C 
ATOM     11  C   UNL     1      31.421  13.978   7.237  0.00  0.00    +0.008 C 
ATOM     12  C   UNL     1      41.034  12.669   6.472  0.00  0.00    +0.035 C 
ATOM     13  C   UNL     1      39.733  13.360   6.847  0.00  0.00    +0.140 C 
ATOM     14  O   UNL     1      39.638  13.981   7.952  0.00  0.00    -0.297 OA
ATOM     15  C   UNL     1      38.545  13.309   5.900  0.00  0.00    +0.079 C 
ATOM     16  C   UNL     1      37.379  14.073   6.508  0.00  0.00    +0.009 C 
ATOM     17  C   UNL     1      32.206  12.812   6.661  0.00  0.00    -0.002 C 
ATOM     18  C   UNL     1      33.604  13.277   6.285  0.00  0.00    +0.008 C 
ATOM     19  C   UNL     1      34.389  12.110   5.709  0.00  0.00    +0.032 C 
ATOM     20  C   UNL     1      35.786  12.576   5.334  0.00  0.00    -0.060 C 
ATOM     21  C   UNL     1      36.674  11.697   4.795  0.00  0.00    +0.046 C 
ATOM     22  C   UNL     1      36.268  10.250   4.568  0.00  0.00    +0.156 C 
ATOM     23  O   UNL     1      35.100   9.861   4.881  0.00  0.00    -0.293 OA
ATOM     24  C   UNL     1      37.260   9.268   3.965  0.00  0.00    +0.080 C 
ATOM     25  C   UNL     1      36.575  14.656   4.233  0.00  0.00    +0.019 C 
ATOM     26  C   UNL     1      36.192  14.023   5.560  0.00  0.00    -0.007 C 
ATOM     27  C   UNL     1      35.026  14.786   6.169  0.00  0.00    +0.016 C 
ATOM     28  C   UNL     1      42.052  12.870   7.582  0.00  0.00    +0.020 C 
ATOM     29  C   UNL     1      40.297  11.576   3.878  0.00  0.00    +0.013 C 
ATOM     30  O   UNL     1      38.697  13.062   5.724  0.00  0.00    -0.348 OA
ATOM     31  C   UNL     1      37.482  13.708   6.074  0.00  0.00    +0.166 C 
ENDROOT
TORSDOF 0
ENDMDL
