MODEL 1
REMARK VINA RESULT:      -5.8      0.000      0.000
REMARK  Name = 
REMARK  6 active torsions:
REMARK  status: ('A' for Active; 'I' for Inactive)
REMARK    1  A    between atoms: C_1  and  O_2
REMARK    2  A    between atoms: O_2  and  C_3
REMARK    3  A    between atoms: C_4  and  O_14
REMARK    4  A    between atoms: C_7  and  C_9
REMARK    5  A    between atoms: C_10  and  C_11
REMARK    6  A    between atoms: C_11  and  O_13
REMARK                            x       y       z     vdW  Elec       q    Type
REMARK                         _______ _______ _______ _____ _____    ______ ____
ROOT
ATOM      1  C   UNL     1      20.661   9.952  19.790  0.00  0.00    +0.162 A 
ATOM      2  C   UNL     1      19.831  11.052  19.371  0.00  0.00    +0.158 A 
ATOM      3  C   UNL     1      18.443  10.827  19.057  0.00  0.00    +0.050 A 
ATOM      4  C   UNL     1      17.886   9.503  19.162  0.00  0.00    +0.012 A 
ATOM      5  C   UNL     1      16.498   9.278  18.848  0.00  0.00    -0.021 A 
ATOM      6  C   UNL     1      22.048  10.176  20.104  0.00  0.00    +0.057 A 
ENDROOT
BRANCH   1   8
ATOM      7  C   UNL     1      20.544   7.774  20.927  0.00  0.00    +0.277 C 
ATOM      8  O   UNL     1      20.112   8.647  19.893  0.00  0.00    -0.491 OA
ENDBRANCH   1   8
BRANCH   5   9
ATOM      9  C   UNL     1      15.911   7.882  18.959  0.00  0.00    +0.015 C 
ATOM     10  C   UNL     1      16.499   6.959  19.767  0.00  0.00    +0.092 C 
BRANCH  10  11
ATOM     11  C   UNL     1      15.912   5.561  19.878  0.00  0.00    +0.330 C 
ATOM     12  O   UNL     1      16.535   4.659  20.521  0.00  0.00    -0.246 OA
BRANCH  11  13
ATOM     13  O   UNL     1      14.667   5.263  19.263  0.00  0.00    -0.478 OA
ATOM     14  H   UNL     1      14.080   5.956  19.034  0.00  0.00    +0.295 HD
ENDBRANCH  11  13
ENDBRANCH  10  11
ENDBRANCH   5   9
BRANCH   2  15
ATOM     15  O   UNL     1      20.380  12.357  19.268  0.00  0.00    -0.503 OA
ATOM     16  H   UNL     1      20.705  12.664  18.445  0.00  0.00    +0.292 HD
ENDBRANCH   2  15
TORSDOF 5
ENDMDL
MODEL 2
REMARK VINA RESULT:      -5.7      3.546      6.023
REMARK  Name = 
REMARK  6 active torsions:
REMARK  status: ('A' for Active; 'I' for Inactive)
REMARK    1  A    between atoms: C_1  and  O_2
REMARK    2  A    between atoms: O_2  and  C_3
REMARK    3  A    between atoms: C_4  and  O_14
REMARK    4  A    between atoms: C_7  and  C_9
REMARK    5  A    between atoms: C_10  and  C_11
REMARK    6  A    between atoms: C_11  and  O_13
REMARK                            x       y       z     vdW  Elec       q    Type
REMARK                         _______ _______ _______ _____ _____    ______ ____
ROOT
ATOM      1  C   UNL     1      21.652   8.050  21.391  0.00  0.00    +0.162 A 
ATOM      2  C   UNL     1      23.050   8.393  21.340  0.00  0.00    +0.158 A 
ATOM      3  C   UNL     1      23.531   9.309  20.337  0.00  0.00    +0.050 A 
ATOM      4  C   UNL     1      22.614   9.882  19.387  0.00  0.00    +0.012 A 
ATOM      5  C   UNL     1      23.094  10.799  18.384  0.00  0.00    -0.021 A 
ATOM      6  C   UNL     1      21.172   7.134  22.393  0.00  0.00    +0.057 A 
ENDROOT
BRANCH   1   8
ATOM      7  C   UNL     1      19.351   8.412  20.604  0.00  0.00    +0.277 C 
ATOM      8  O   UNL     1      20.748   8.615  20.454  0.00  0.00    -0.491 OA
ENDBRANCH   1   8
BRANCH   5   9
ATOM      9  C   UNL     1      22.126  11.403  17.382  0.00  0.00    +0.015 C 
ATOM     10  C   UNL     1      20.835  10.976  17.341  0.00  0.00    +0.092 C 
BRANCH  10  11
ATOM     11  C   UNL     1      19.866  11.581  16.337  0.00  0.00    +0.330 C 
ATOM     12  O   UNL     1      19.050  12.484  16.706  0.00  0.00    -0.246 OA
BRANCH  11  13
ATOM     13  O   UNL     1      19.872  11.138  14.988  0.00  0.00    -0.478 OA
ATOM     14  H   UNL     1      20.518  10.524  14.700  0.00  0.00    +0.295 HD
ENDBRANCH  11  13
ENDBRANCH  10  11
ENDBRANCH   5   9
BRANCH   2  15
ATOM     15  O   UNL     1      23.955   7.827  22.277  0.00  0.00    -0.503 OA
ATOM     16  H   UNL     1      24.851   8.101  22.287  0.00  0.00    +0.292 HD
ENDBRANCH   2  15
TORSDOF 5
ENDMDL
MODEL 3
REMARK VINA RESULT:      -5.5      1.923      2.155
REMARK  Name = 
REMARK  6 active torsions:
REMARK  status: ('A' for Active; 'I' for Inactive)
REMARK    1  A    between atoms: C_1  and  O_2
REMARK    2  A    between atoms: O_2  and  C_3
REMARK    3  A    between atoms: C_4  and  O_14
REMARK    4  A    between atoms: C_7  and  C_9
REMARK    5  A    between atoms: C_10  and  C_11
REMARK    6  A    between atoms: C_11  and  O_13
REMARK                            x       y       z     vdW  Elec       q    Type
REMARK                         _______ _______ _______ _____ _____    ______ ____
ROOT
ATOM      1  C   UNL     1      20.987   7.802  19.521  0.00  0.00    +0.162 A 
ATOM      2  C   UNL     1      20.598   8.680  18.448  0.00  0.00    +0.158 A 
ATOM      3  C   UNL     1      19.202   8.889  18.158  0.00  0.00    +0.050 A 
ATOM      4  C   UNL     1      18.196   8.219  18.941  0.00  0.00    +0.012 A 
ATOM      5  C   UNL     1      16.800   8.427  18.650  0.00  0.00    -0.021 A 
ATOM      6  C   UNL     1      22.381   7.593  19.812  0.00  0.00    +0.057 A 
ENDROOT
BRANCH   1   8
ATOM      7  C   UNL     1      20.336   6.564  21.545  0.00  0.00    +0.277 C 
ATOM      8  O   UNL     1      19.994   7.142  20.293  0.00  0.00    -0.491 OA
ENDBRANCH   1   8
BRANCH   5   9
ATOM      9  C   UNL     1      15.739   7.721  19.476  0.00  0.00    +0.015 C 
ATOM     10  C   UNL     1      15.324   6.474  19.126  0.00  0.00    +0.092 C 
BRANCH  10  11
ATOM     11  C   UNL     1      14.262   5.766  19.952  0.00  0.00    +0.330 C 
ATOM     12  O   UNL     1      13.220   6.394  20.320  0.00  0.00    -0.246 OA
BRANCH  11  13
ATOM     13  O   UNL     1      14.434   4.404  20.313  0.00  0.00    -0.478 OA
ATOM     14  H   UNL     1      13.949   3.736  19.869  0.00  0.00    +0.295 HD
ENDBRANCH  11  13
ENDBRANCH  10  11
ENDBRANCH   5   9
BRANCH   2  15
ATOM     15  O   UNL     1      21.590   9.340  17.677  0.00  0.00    -0.503 OA
ATOM     16  H   UNL     1      21.660   9.168  16.758  0.00  0.00    +0.292 HD
ENDBRANCH   2  15
TORSDOF 5
ENDMDL
MODEL 4
REMARK VINA RESULT:      -5.3      4.870      6.435
REMARK  Name = 
REMARK  6 active torsions:
REMARK  status: ('A' for Active; 'I' for Inactive)
REMARK    1  A    between atoms: C_1  and  O_2
REMARK    2  A    between atoms: O_2  and  C_3
REMARK    3  A    between atoms: C_4  and  O_14
REMARK    4  A    between atoms: C_7  and  C_9
REMARK    5  A    between atoms: C_10  and  C_11
REMARK    6  A    between atoms: C_11  and  O_13
REMARK                            x       y       z     vdW  Elec       q    Type
REMARK                         _______ _______ _______ _____ _____    ______ ____
ROOT
ATOM      1  C   UNL     1      21.036  13.925  15.547  0.00  0.00    +0.162 A 
ATOM      2  C   UNL     1      22.264  14.343  16.173  0.00  0.00    +0.158 A 
ATOM      3  C   UNL     1      22.916  13.482  17.127  0.00  0.00    +0.050 A 
ATOM      4  C   UNL     1      22.339  12.204  17.454  0.00  0.00    +0.012 A 
ATOM      5  C   UNL     1      22.990  11.343  18.408  0.00  0.00    -0.021 A 
ATOM      6  C   UNL     1      20.385  14.785  14.594  0.00  0.00    +0.057 A 
ENDROOT
BRANCH   1   8
ATOM      7  C   UNL     1      19.335  12.193  15.156  0.00  0.00    +0.277 C 
ATOM      8  O   UNL     1      20.468  12.665  15.870  0.00  0.00    -0.491 OA
ENDBRANCH   1   8
BRANCH   5   9
ATOM      9  C   UNL     1      22.382   9.994  18.754  0.00  0.00    +0.015 C 
ATOM     10  C   UNL     1      23.069   9.119  19.535  0.00  0.00    +0.092 C 
BRANCH  10  11
ATOM     11  C   UNL     1      22.461   7.769  19.881  0.00  0.00    +0.330 C 
ATOM     12  O   UNL     1      22.137   7.507  21.082  0.00  0.00    -0.246 OA
BRANCH  11  13
ATOM     13  O   UNL     1      22.255   6.801  18.863  0.00  0.00    -0.478 OA
ATOM     14  H   UNL     1      21.423   6.741  18.435  0.00  0.00    +0.295 HD
ENDBRANCH  11  13
ENDBRANCH  10  11
ENDBRANCH   5   9
BRANCH   2  15
ATOM     15  O   UNL     1      22.833  15.604  15.850  0.00  0.00    -0.503 OA
ATOM     16  H   UNL     1      22.638  16.007  15.027  0.00  0.00    +0.292 HD
ENDBRANCH   2  15
TORSDOF 5
ENDMDL
MODEL 5
REMARK VINA RESULT:      -5.2      2.880      7.024
REMARK  Name = 
REMARK  6 active torsions:
REMARK  status: ('A' for Active; 'I' for Inactive)
REMARK    1  A    between atoms: C_1  and  O_2
REMARK    2  A    between atoms: O_2  and  C_3
REMARK    3  A    between atoms: C_4  and  O_14
REMARK    4  A    between atoms: C_7  and  C_9
REMARK    5  A    between atoms: C_10  and  C_11
REMARK    6  A    between atoms: C_11  and  O_13
REMARK                            x       y       z     vdW  Elec       q    Type
REMARK                         _______ _______ _______ _____ _____    ______ ____
ROOT
ATOM      1  C   UNL     1      19.300   7.703  20.119  0.00  0.00    +0.162 A 
ATOM      2  C   UNL     1      20.296   7.691  21.158  0.00  0.00    +0.158 A 
ATOM      3  C   UNL     1      21.486   8.493  21.025  0.00  0.00    +0.050 A 
ATOM      4  C   UNL     1      21.679   9.305  19.852  0.00  0.00    +0.012 A 
ATOM      5  C   UNL     1      22.868  10.107  19.718  0.00  0.00    -0.021 A 
ATOM      6  C   UNL     1      18.111   6.902  20.252  0.00  0.00    +0.057 A 
ENDROOT
BRANCH   1   8
ATOM      7  C   UNL     1      18.663   8.315  17.823  0.00  0.00    +0.277 C 
ATOM      8  O   UNL     1      19.490   8.504  18.962  0.00  0.00    -0.491 OA
ENDBRANCH   1   8
BRANCH   5   9
ATOM      9  C   UNL     1      23.071  10.964  18.480  0.00  0.00    +0.015 C 
ATOM     10  C   UNL     1      22.605  12.242  18.454  0.00  0.00    +0.092 C 
BRANCH  10  11
ATOM     11  C   UNL     1      22.808  13.100  17.216  0.00  0.00    +0.330 C 
ATOM     12  O   UNL     1      23.287  14.272  17.327  0.00  0.00    -0.246 OA
BRANCH  11  13
ATOM     13  O   UNL     1      22.462  12.593  15.936  0.00  0.00    -0.478 OA
ATOM     14  H   UNL     1      22.788  13.010  15.163  0.00  0.00    +0.295 HD
ENDBRANCH  11  13
ENDBRANCH  10  11
ENDBRANCH   5   9
BRANCH   2  15
ATOM     15  O   UNL     1      20.106   6.890  22.315  0.00  0.00    -0.503 OA
ATOM     16  H   UNL     1      20.835   6.449  22.704  0.00  0.00    +0.292 HD
ENDBRANCH   2  15
TORSDOF 5
ENDMDL
MODEL 6
REMARK VINA RESULT:      -5.1      2.954      6.149
REMARK  Name = 
REMARK  6 active torsions:
REMARK  status: ('A' for Active; 'I' for Inactive)
REMARK    1  A    between atoms: C_1  and  O_2
REMARK    2  A    between atoms: O_2  and  C_3
REMARK    3  A    between atoms: C_4  and  O_14
REMARK    4  A    between atoms: C_7  and  C_9
REMARK    5  A    between atoms: C_10  and  C_11
REMARK    6  A    between atoms: C_11  and  O_13
REMARK                            x       y       z     vdW  Elec       q    Type
REMARK                         _______ _______ _______ _____ _____    ______ ____
ROOT
ATOM      1  C   UNL     1      21.015   8.173  20.198  0.00  0.00    +0.162 A 
ATOM      2  C   UNL     1      19.661   8.336  20.660  0.00  0.00    +0.158 A 
ATOM      3  C   UNL     1      18.843   9.398  20.132  0.00  0.00    +0.050 A 
ATOM      4  C   UNL     1      19.379  10.296  19.142  0.00  0.00    +0.012 A 
ATOM      5  C   UNL     1      18.561  11.358  18.614  0.00  0.00    -0.021 A 
ATOM      6  C   UNL     1      21.832   7.112  20.726  0.00  0.00    +0.057 A 
ENDROOT
BRANCH   1   8
ATOM      7  C   UNL     1      22.849   9.593  19.382  0.00  0.00    +0.277 C 
ATOM      8  O   UNL     1      21.544   9.058  19.222  0.00  0.00    -0.491 OA
ENDBRANCH   1   8
BRANCH   5   9
ATOM      9  C   UNL     1      19.128  12.305  17.570  0.00  0.00    +0.015 C 
ATOM     10  C   UNL     1      20.419  12.722  17.659  0.00  0.00    +0.092 C 
BRANCH  10  11
ATOM     11  C   UNL     1      20.987  13.669  16.615  0.00  0.00    +0.330 C 
ATOM     12  O   UNL     1      21.456  14.797  16.968  0.00  0.00    -0.246 OA
BRANCH  11  13
ATOM     13  O   UNL     1      20.992  13.296  15.245  0.00  0.00    -0.478 OA
ATOM     14  H   UNL     1      21.787  13.007  14.841  0.00  0.00    +0.295 HD
ENDBRANCH  11  13
ENDBRANCH  10  11
ENDBRANCH   5   9
BRANCH   2  15
ATOM     15  O   UNL     1      19.132   7.451  21.636  0.00  0.00    -0.503 OA
ATOM     16  H   UNL     1      19.122   7.701  22.539  0.00  0.00    +0.292 HD
ENDBRANCH   2  15
TORSDOF 5
ENDMDL
MODEL 7
REMARK VINA RESULT:      -5.1      3.744      5.178
REMARK  Name = 
REMARK  6 active torsions:
REMARK  status: ('A' for Active; 'I' for Inactive)
REMARK    1  A    between atoms: C_1  and  O_2
REMARK    2  A    between atoms: O_2  and  C_3
REMARK    3  A    between atoms: C_4  and  O_14
REMARK    4  A    between atoms: C_7  and  C_9
REMARK    5  A    between atoms: C_10  and  C_11
REMARK    6  A    between atoms: C_11  and  O_13
REMARK                            x       y       z     vdW  Elec       q    Type
REMARK                         _______ _______ _______ _____ _____    ______ ____
ROOT
ATOM      1  C   UNL     1      22.163  14.134  16.159  0.00  0.00    +0.162 A 
ATOM      2  C   UNL     1      21.050  14.997  16.458  0.00  0.00    +0.158 A 
ATOM      3  C   UNL     1      19.861  14.455  17.065  0.00  0.00    +0.050 A 
ATOM      4  C   UNL     1      19.786  13.050  17.372  0.00  0.00    +0.012 A 
ATOM      5  C   UNL     1      18.597  12.508  17.979  0.00  0.00    -0.021 A 
ATOM      6  C   UNL     1      23.351  14.675  15.553  0.00  0.00    +0.057 A 
ENDROOT
BRANCH   1   8
ATOM      7  C   UNL     1      23.278  12.004  16.675  0.00  0.00    +0.277 C 
ATOM      8  O   UNL     1      22.089  12.749  16.462  0.00  0.00    -0.491 OA
ENDBRANCH   1   8
BRANCH   5   9
ATOM      9  C   UNL     1      18.518  11.026  18.303  0.00  0.00    +0.015 C 
ATOM     10  C   UNL     1      19.052  10.113  17.447  0.00  0.00    +0.092 C 
BRANCH  10  11
ATOM     11  C   UNL     1      18.973   8.630  17.771  0.00  0.00    +0.330 C 
ATOM     12  O   UNL     1      18.219   8.224  18.710  0.00  0.00    -0.246 OA
BRANCH  11  13
ATOM     13  O   UNL     1      19.743   7.699  17.025  0.00  0.00    -0.478 OA
ATOM     14  H   UNL     1      20.668   7.818  16.939  0.00  0.00    +0.295 HD
ENDBRANCH  11  13
ENDBRANCH  10  11
ENDBRANCH   5   9
BRANCH   2  15
ATOM     15  O   UNL     1      21.124  16.382  16.155  0.00  0.00    -0.503 OA
ATOM     16  H   UNL     1      21.459  16.983  16.791  0.00  0.00    +0.292 HD
ENDBRANCH   2  15
TORSDOF 5
ENDMDL
MODEL 8
REMARK VINA RESULT:      -5.1      3.524      5.189
REMARK  Name = 
REMARK  6 active torsions:
REMARK  status: ('A' for Active; 'I' for Inactive)
REMARK    1  A    between atoms: C_1  and  O_2
REMARK    2  A    between atoms: O_2  and  C_3
REMARK    3  A    between atoms: C_4  and  O_14
REMARK    4  A    between atoms: C_7  and  C_9
REMARK    5  A    between atoms: C_10  and  C_11
REMARK    6  A    between atoms: C_11  and  O_13
REMARK                            x       y       z     vdW  Elec       q    Type
REMARK                         _______ _______ _______ _____ _____    ______ ____
ROOT
ATOM      1  C   UNL     1      20.807  12.100  16.639  0.00  0.00    +0.162 A 
ATOM      2  C   UNL     1      22.245  12.158  16.622  0.00  0.00    +0.158 A 
ATOM      3  C   UNL     1      23.009  11.371  17.557  0.00  0.00    +0.050 A 
ATOM      4  C   UNL     1      22.334  10.527  18.508  0.00  0.00    +0.012 A 
ATOM      5  C   UNL     1      23.097   9.740  19.443  0.00  0.00    -0.021 A 
ATOM      6  C   UNL     1      20.043  12.886  15.706  0.00  0.00    +0.057 A 
ENDROOT
BRANCH   1   8
ATOM      7  C   UNL     1      18.887  11.664  18.114  0.00  0.00    +0.277 C 
ATOM      8  O   UNL     1      20.141  11.267  17.577  0.00  0.00    -0.491 OA
ENDBRANCH   1   8
BRANCH   5   9
ATOM      9  C   UNL     1      22.384   8.850  20.446  0.00  0.00    +0.015 C 
ATOM     10  C   UNL     1      21.869   7.656  20.049  0.00  0.00    +0.092 C 
BRANCH  10  11
ATOM     11  C   UNL     1      21.155   6.764  21.052  0.00  0.00    +0.330 C 
ATOM     12  O   UNL     1      21.187   7.049  22.290  0.00  0.00    -0.246 OA
BRANCH  11  13
ATOM     13  O   UNL     1      20.454   5.612  20.606  0.00  0.00    -0.478 OA
ATOM     14  H   UNL     1      20.880   4.778  20.598  0.00  0.00    +0.295 HD
ENDBRANCH  11  13
ENDBRANCH  10  11
ENDBRANCH   5   9
BRANCH   2  15
ATOM     15  O   UNL     1      22.911  12.991  15.684  0.00  0.00    -0.503 OA
ATOM     16  H   UNL     1      22.523  13.157  14.848  0.00  0.00    +0.292 HD
ENDBRANCH   2  15
TORSDOF 5
ENDMDL
MODEL 9
REMARK VINA RESULT:      -5.0      1.768      3.371
REMARK  Name = 
REMARK  6 active torsions:
REMARK  status: ('A' for Active; 'I' for Inactive)
REMARK    1  A    between atoms: C_1  and  O_2
REMARK    2  A    between atoms: O_2  and  C_3
REMARK    3  A    between atoms: C_4  and  O_14
REMARK    4  A    between atoms: C_7  and  C_9
REMARK    5  A    between atoms: C_10  and  C_11
REMARK    6  A    between atoms: C_11  and  O_13
REMARK                            x       y       z     vdW  Elec       q    Type
REMARK                         _______ _______ _______ _____ _____    ______ ____
ROOT
ATOM      1  C   UNL     1      21.834   9.378  20.182  0.00  0.00    +0.162 A 
ATOM      2  C   UNL     1      22.472   8.369  20.988  0.00  0.00    +0.158 A 
ATOM      3  C   UNL     1      21.716   7.233  21.450  0.00  0.00    +0.050 A 
ATOM      4  C   UNL     1      20.324   7.106  21.106  0.00  0.00    +0.012 A 
ATOM      5  C   UNL     1      19.569   5.969  21.568  0.00  0.00    -0.021 A 
ATOM      6  C   UNL     1      22.589  10.514  19.721  0.00  0.00    +0.057 A 
ENDROOT
BRANCH   1   8
ATOM      7  C   UNL     1      19.607  10.386  19.909  0.00  0.00    +0.277 C 
ATOM      8  O   UNL     1      20.461   9.253  19.843  0.00  0.00    -0.491 OA
ENDBRANCH   1   8
BRANCH   5   9
ATOM      9  C   UNL     1      18.100   5.835  21.205  0.00  0.00    +0.015 C 
ATOM     10  C   UNL     1      17.617   6.446  20.089  0.00  0.00    +0.092 C 
BRANCH  10  11
ATOM     11  C   UNL     1      16.147   6.312  19.726  0.00  0.00    +0.330 C 
ATOM     12  O   UNL     1      15.472   7.345  19.419  0.00  0.00    -0.246 OA
BRANCH  11  13
ATOM     13  O   UNL     1      15.528   5.034  19.728  0.00  0.00    -0.478 OA
ATOM     14  H   UNL     1      14.729   4.902  20.199  0.00  0.00    +0.295 HD
ENDBRANCH  11  13
ENDBRANCH  10  11
ENDBRANCH   5   9
BRANCH   2  15
ATOM     15  O   UNL     1      23.845   8.495  21.327  0.00  0.00    -0.503 OA
ATOM     16  H   UNL     1      24.504   8.271  20.700  0.00  0.00    +0.292 HD
ENDBRANCH   2  15
TORSDOF 5
ENDMDL
