MODEL 1
REMARK VINA RESULT:      -7.4      0.000      0.000
REMARK  Name = 
REMARK  2 active torsions:
REMARK  status: ('A' for Active; 'I' for Inactive)
REMARK    1  A    between atoms: C_4  and  C_7
REMARK    2  A    between atoms: C_8  and  O_18
REMARK                            x       y       z     vdW  Elec       q    Type
REMARK                         _______ _______ _______ _____ _____    ______ ____
ROOT
ATOM      1  C   UNL     1      20.692  13.052  16.253  0.00  0.00    +0.181 A 
ATOM      2  C   UNL     1      21.885  13.663  16.783  0.00  0.00    +0.208 A 
ATOM      3  C   UNL     1      22.680  12.962  17.758  0.00  0.00    +0.234 A 
ATOM      4  O   UNL     1      23.732  13.501  18.225  0.00  0.00    -0.283 OA
ATOM      5  C   UNL     1      22.284  11.651  18.204  0.00  0.00    +0.068 A 
ATOM      6  C   UNL     1      23.079  10.951  19.180  0.00  0.00    +0.015 A 
ATOM      7  C   UNL     1      22.682   9.640  19.626  0.00  0.00    +0.001 A 
ATOM      8  C   UNL     1      23.478   8.941  20.600  0.00  0.00    +0.004 A 
ATOM      9  C   UNL     1      23.082   7.630  21.046  0.00  0.00    +0.047 A 
ATOM     10  C   UNL     1      21.091  11.040  17.674  0.00  0.00    +0.140 A 
ATOM     11  O   UNL     1      19.950  13.705  15.342  0.00  0.00    -0.451 OA
ENDROOT
BRANCH   1  15
ATOM     12  C   UNL     1      17.834  10.075  19.178  0.00  0.00    +0.000 A 
ATOM     13  C   UNL     1      18.856  10.216  18.173  0.00  0.00    +0.001 A 
ATOM     14  C   UNL     1      19.252  11.527  17.728  0.00  0.00    +0.011 A 
ATOM     15  C   UNL     1      20.274  11.668  16.723  0.00  0.00    +0.021 A 
ATOM     16  C   UNL     1      20.900  10.498  16.165  0.00  0.00    +0.011 A 
ATOM     17  C   UNL     1      17.439   8.764  19.624  0.00  0.00    +0.001 A 
ENDBRANCH   1  15
BRANCH   2  18
ATOM     18  O   UNL     1      22.276  14.955  16.343  0.00  0.00    -0.501 OA
ATOM     19  H   UNL     1      21.920  15.307  15.551  0.00  0.00    +0.292 HD
ENDBRANCH   2  18
TORSDOF 2
ENDMDL
MODEL 2
REMARK VINA RESULT:      -7.2      1.974      4.047
REMARK  Name = 
REMARK  2 active torsions:
REMARK  status: ('A' for Active; 'I' for Inactive)
REMARK    1  A    between atoms: C_4  and  C_7
REMARK    2  A    between atoms: C_8  and  O_18
REMARK                            x       y       z     vdW  Elec       q    Type
REMARK                         _______ _______ _______ _____ _____    ______ ____
ROOT
ATOM      1  C   UNL     1      19.253  12.325  17.774  0.00  0.00    +0.181 A 
ATOM      2  C   UNL     1      19.379  13.711  17.400  0.00  0.00    +0.208 A 
ATOM      3  C   UNL     1      20.677  14.263  17.108  0.00  0.00    +0.234 A 
ATOM      4  O   UNL     1      20.788  15.485  16.777  0.00  0.00    -0.283 OA
ATOM      5  C   UNL     1      21.849  13.431  17.191  0.00  0.00    +0.068 A 
ATOM      6  C   UNL     1      23.147  13.983  16.901  0.00  0.00    +0.015 A 
ATOM      7  C   UNL     1      24.319  13.151  16.984  0.00  0.00    +0.001 A 
ATOM      8  C   UNL     1      25.616  13.704  16.693  0.00  0.00    +0.004 A 
ATOM      9  C   UNL     1      26.789  12.871  16.776  0.00  0.00    +0.047 A 
ATOM     10  C   UNL     1      21.724  12.045  17.566  0.00  0.00    +0.140 A 
ATOM     11  O   UNL     1      18.041  11.809  18.045  0.00  0.00    -0.451 OA
ENDROOT
BRANCH   1  15
ATOM     12  C   UNL     1      22.655   9.776  20.514  0.00  0.00    +0.000 A 
ATOM     13  C   UNL     1      22.159  10.195  19.229  0.00  0.00    +0.001 A 
ATOM     14  C   UNL     1      20.986  11.027  19.147  0.00  0.00    +0.011 A 
ATOM     15  C   UNL     1      20.490  11.446  17.861  0.00  0.00    +0.021 A 
ATOM     16  C   UNL     1      21.167  11.034  16.659  0.00  0.00    +0.011 A 
ATOM     17  C   UNL     1      23.828   8.944  20.597  0.00  0.00    +0.001 A 
ENDBRANCH   1  15
BRANCH   2  18
ATOM     18  O   UNL     1      18.223  14.531  17.316  0.00  0.00    -0.501 OA
ATOM     19  H   UNL     1      17.423  14.255  17.718  0.00  0.00    +0.292 HD
ENDBRANCH   2  18
TORSDOF 2
ENDMDL
MODEL 3
REMARK VINA RESULT:      -6.2     23.384     25.456
REMARK  Name = 
REMARK  2 active torsions:
REMARK  status: ('A' for Active; 'I' for Inactive)
REMARK    1  A    between atoms: C_4  and  C_7
REMARK    2  A    between atoms: C_8  and  O_18
REMARK                            x       y       z     vdW  Elec       q    Type
REMARK                         _______ _______ _______ _____ _____    ______ ____
ROOT
ATOM      1  C   UNL     1      46.094  13.631  19.229  0.00  0.00    +0.181 A 
ATOM      2  C   UNL     1      44.816  13.009  18.993  0.00  0.00    +0.208 A 
ATOM      3  C   UNL     1      44.480  11.777  19.660  0.00  0.00    +0.234 A 
ATOM      4  O   UNL     1      43.352  11.229  19.452  0.00  0.00    -0.283 OA
ATOM      5  C   UNL     1      45.422  11.166  20.562  0.00  0.00    +0.068 A 
ATOM      6  C   UNL     1      45.086   9.934  21.227  0.00  0.00    +0.015 A 
ATOM      7  C   UNL     1      46.028   9.323  22.129  0.00  0.00    +0.001 A 
ATOM      8  C   UNL     1      45.692   8.092  22.795  0.00  0.00    +0.004 A 
ATOM      9  C   UNL     1      46.634   7.481  23.697  0.00  0.00    +0.047 A 
ATOM     10  C   UNL     1      46.700  11.788  20.798  0.00  0.00    +0.140 A 
ATOM     11  O   UNL     1      46.407  14.782  18.608  0.00  0.00    -0.451 OA
ENDROOT
BRANCH   1  15
ATOM     12  C   UNL     1      47.932  12.986  23.897  0.00  0.00    +0.000 A 
ATOM     13  C   UNL     1      47.981  12.681  22.490  0.00  0.00    +0.001 A 
ATOM     14  C   UNL     1      47.039  13.291  21.588  0.00  0.00    +0.011 A 
ATOM     15  C   UNL     1      47.088  12.986  20.181  0.00  0.00    +0.021 A 
ATOM     16  C   UNL     1      48.079  12.072  19.677  0.00  0.00    +0.011 A 
ATOM     17  C   UNL     1      48.875  12.376  24.799  0.00  0.00    +0.001 A 
ENDBRANCH   1  15
BRANCH   2  18
ATOM     18  O   UNL     1      43.886  13.612  18.104  0.00  0.00    -0.501 OA
ATOM     19  H   UNL     1      43.589  13.144  17.350  0.00  0.00    +0.292 HD
ENDBRANCH   2  18
TORSDOF 2
ENDMDL
MODEL 4
REMARK VINA RESULT:      -6.0     17.333     18.337
REMARK  Name = 
REMARK  2 active torsions:
REMARK  status: ('A' for Active; 'I' for Inactive)
REMARK    1  A    between atoms: C_4  and  C_7
REMARK    2  A    between atoms: C_8  and  O_18
REMARK                            x       y       z     vdW  Elec       q    Type
REMARK                         _______ _______ _______ _____ _____    ______ ____
ROOT
ATOM      1  C   UNL     1       2.746  15.942  19.532  0.00  0.00    +0.181 A 
ATOM      2  C   UNL     1       3.638  16.754  18.745  0.00  0.00    +0.208 A 
ATOM      3  C   UNL     1       4.636  17.565  19.395  0.00  0.00    +0.234 A 
ATOM      4  O   UNL     1       5.423  18.282  18.700  0.00  0.00    -0.283 OA
ATOM      5  C   UNL     1       4.741  17.565  20.831  0.00  0.00    +0.068 A 
ATOM      6  C   UNL     1       5.737  18.377  21.480  0.00  0.00    +0.015 A 
ATOM      7  C   UNL     1       5.842  18.377  22.917  0.00  0.00    +0.001 A 
ATOM      8  C   UNL     1       6.838  19.188  23.565  0.00  0.00    +0.004 A 
ATOM      9  C   UNL     1       6.944  19.188  25.002  0.00  0.00    +0.047 A 
ATOM     10  C   UNL     1       3.848  16.753  21.618  0.00  0.00    +0.140 A 
ATOM     11  O   UNL     1       1.816  15.183  18.926  0.00  0.00    -0.451 OA
ENDROOT
BRANCH   1  15
ATOM     12  C   UNL     1       4.865  14.216  23.788  0.00  0.00    +0.000 A 
ATOM     13  C   UNL     1       3.913  15.078  23.136  0.00  0.00    +0.001 A 
ATOM     14  C   UNL     1       3.809  15.079  21.700  0.00  0.00    +0.011 A 
ATOM     15  C   UNL     1       2.857  15.941  21.048  0.00  0.00    +0.021 A 
ATOM     16  C   UNL     1       2.010  16.801  21.833  0.00  0.00    +0.011 A 
ATOM     17  C   UNL     1       4.970  14.215  25.225  0.00  0.00    +0.001 A 
ENDBRANCH   1  15
BRANCH   2  18
ATOM     18  O   UNL     1       3.536  16.753  17.329  0.00  0.00    -0.501 OA
ATOM     19  H   UNL     1       2.818  16.319  16.912  0.00  0.00    +0.292 HD
ENDBRANCH   2  18
TORSDOF 2
ENDMDL
MODEL 5
REMARK VINA RESULT:      -5.9     23.377     25.458
REMARK  Name = 
REMARK  2 active torsions:
REMARK  status: ('A' for Active; 'I' for Inactive)
REMARK    1  A    between atoms: C_4  and  C_7
REMARK    2  A    between atoms: C_8  and  O_18
REMARK                            x       y       z     vdW  Elec       q    Type
REMARK                         _______ _______ _______ _____ _____    ______ ____
ROOT
ATOM      1  C   UNL     1      47.201  16.059  16.156  0.00  0.00    +0.181 A 
ATOM      2  C   UNL     1      45.903  16.588  16.493  0.00  0.00    +0.208 A 
ATOM      3  C   UNL     1      45.009  15.826  17.326  0.00  0.00    +0.234 A 
ATOM      4  O   UNL     1      43.864  16.292  17.623  0.00  0.00    -0.283 OA
ATOM      5  C   UNL     1      45.411  14.535  17.821  0.00  0.00    +0.068 A 
ATOM      6  C   UNL     1      44.516  13.772  18.653  0.00  0.00    +0.015 A 
ATOM      7  C   UNL     1      44.918  12.481  19.148  0.00  0.00    +0.001 A 
ATOM      8  C   UNL     1      44.024  11.719  19.980  0.00  0.00    +0.004 A 
ATOM      9  C   UNL     1      44.426  10.428  20.477  0.00  0.00    +0.047 A 
ATOM     10  C   UNL     1      46.708  14.006  17.484  0.00  0.00    +0.140 A 
ATOM     11  O   UNL     1      48.036  16.772  15.379  0.00  0.00    -0.451 OA
ENDROOT
BRANCH   1  15
ATOM     12  C   UNL     1      47.663  11.060  15.547  0.00  0.00    +0.000 A 
ATOM     13  C   UNL     1      47.845  12.233  16.361  0.00  0.00    +0.001 A 
ATOM     14  C   UNL     1      47.444  13.524  15.865  0.00  0.00    +0.011 A 
ATOM     15  C   UNL     1      47.625  14.697  16.680  0.00  0.00    +0.021 A 
ATOM     16  C   UNL     1      48.209  14.580  17.991  0.00  0.00    +0.011 A 
ATOM     17  C   UNL     1      48.065   9.769  16.043  0.00  0.00    +0.001 A 
ENDBRANCH   1  15
BRANCH   2  18
ATOM     18  O   UNL     1      45.507  17.862  16.005  0.00  0.00    -0.501 OA
ATOM     19  H   UNL     1      44.897  18.380  16.491  0.00  0.00    +0.292 HD
ENDBRANCH   2  18
TORSDOF 2
ENDMDL
MODEL 6
REMARK VINA RESULT:      -5.8     23.430     25.815
REMARK  Name = 
REMARK  2 active torsions:
REMARK  status: ('A' for Active; 'I' for Inactive)
REMARK    1  A    between atoms: C_4  and  C_7
REMARK    2  A    between atoms: C_8  and  O_18
REMARK                            x       y       z     vdW  Elec       q    Type
REMARK                         _______ _______ _______ _____ _____    ______ ____
ROOT
ATOM      1  C   UNL     1      46.222  13.605  19.121  0.00  0.00    +0.181 A 
ATOM      2  C   UNL     1      44.887  13.074  19.002  0.00  0.00    +0.208 A 
ATOM      3  C   UNL     1      44.529  11.865  19.698  0.00  0.00    +0.234 A 
ATOM      4  O   UNL     1      43.352  11.397  19.594  0.00  0.00    -0.283 OA
ATOM      5  C   UNL     1      45.504  11.186  20.512  0.00  0.00    +0.068 A 
ATOM      6  C   UNL     1      45.146   9.977  21.207  0.00  0.00    +0.015 A 
ATOM      7  C   UNL     1      46.121   9.298  22.020  0.00  0.00    +0.001 A 
ATOM      8  C   UNL     1      45.762   8.089  22.715  0.00  0.00    +0.004 A 
ATOM      9  C   UNL     1      46.737   7.410  23.530  0.00  0.00    +0.047 A 
ATOM     10  C   UNL     1      46.839  11.716  20.630  0.00  0.00    +0.140 A 
ATOM     11  O   UNL     1      46.556  14.734  18.472  0.00  0.00    -0.451 OA
ENDROOT
BRANCH   1  15
ATOM     12  C   UNL     1      50.068  10.353  19.588  0.00  0.00    +0.000 A 
ATOM     13  C   UNL     1      49.147  11.281  20.191  0.00  0.00    +0.001 A 
ATOM     14  C   UNL     1      48.172  11.961  19.377  0.00  0.00    +0.011 A 
ATOM     15  C   UNL     1      47.251  12.889  19.980  0.00  0.00    +0.021 A 
ATOM     16  C   UNL     1      47.304  13.138  21.397  0.00  0.00    +0.011 A 
ATOM     17  C   UNL     1      51.042   9.674  20.403  0.00  0.00    +0.001 A 
ENDBRANCH   1  15
BRANCH   2  18
ATOM     18  O   UNL     1      43.926  13.744  18.201  0.00  0.00    -0.501 OA
ATOM     19  H   UNL     1      43.111  13.327  18.000  0.00  0.00    +0.292 HD
ENDBRANCH   2  18
TORSDOF 2
ENDMDL
MODEL 7
REMARK VINA RESULT:      -5.8     16.310     17.787
REMARK  Name = 
REMARK  2 active torsions:
REMARK  status: ('A' for Active; 'I' for Inactive)
REMARK    1  A    between atoms: C_4  and  C_7
REMARK    2  A    between atoms: C_8  and  O_18
REMARK                            x       y       z     vdW  Elec       q    Type
REMARK                         _______ _______ _______ _____ _____    ______ ____
ROOT
ATOM      1  C   UNL     1      36.099  12.981  28.131  0.00  0.00    +0.181 A 
ATOM      2  C   UNL     1      35.187  11.865  28.119  0.00  0.00    +0.208 A 
ATOM      3  C   UNL     1      33.851  12.022  28.634  0.00  0.00    +0.234 A 
ATOM      4  O   UNL     1      33.046  11.038  28.624  0.00  0.00    -0.283 OA
ATOM      5  C   UNL     1      33.427  13.293  29.162  0.00  0.00    +0.068 A 
ATOM      6  C   UNL     1      32.092  13.450  29.679  0.00  0.00    +0.015 A 
ATOM      7  C   UNL     1      31.668  14.721  30.207  0.00  0.00    +0.001 A 
ATOM      8  C   UNL     1      30.333  14.877  30.722  0.00  0.00    +0.004 A 
ATOM      9  C   UNL     1      29.908  16.148  31.249  0.00  0.00    +0.047 A 
ATOM     10  C   UNL     1      34.339  14.409  29.174  0.00  0.00    +0.140 A 
ATOM     11  O   UNL     1      37.346  12.835  27.648  0.00  0.00    -0.451 OA
ENDROOT
BRANCH   1  15
ATOM     12  C   UNL     1      33.987  17.530  27.481  0.00  0.00    +0.000 A 
ATOM     13  C   UNL     1      34.608  16.562  28.348  0.00  0.00    +0.001 A 
ATOM     14  C   UNL     1      35.031  15.290  27.820  0.00  0.00    +0.011 A 
ATOM     15  C   UNL     1      35.651  14.323  28.687  0.00  0.00    +0.021 A 
ATOM     16  C   UNL     1      35.849  14.626  30.081  0.00  0.00    +0.011 A 
ATOM     17  C   UNL     1      33.564  18.802  28.008  0.00  0.00    +0.001 A 
ENDBRANCH   1  15
BRANCH   2  18
ATOM     18  O   UNL     1      35.604  10.612  27.598  0.00  0.00    -0.501 OA
ATOM     19  H   UNL     1      36.517  10.435  27.480  0.00  0.00    +0.292 HD
ENDBRANCH   2  18
TORSDOF 2
ENDMDL
MODEL 8
REMARK VINA RESULT:      -5.7     16.126     18.182
REMARK  Name = 
REMARK  2 active torsions:
REMARK  status: ('A' for Active; 'I' for Inactive)
REMARK    1  A    between atoms: C_4  and  C_7
REMARK    2  A    between atoms: C_8  and  O_18
REMARK                            x       y       z     vdW  Elec       q    Type
REMARK                         _______ _______ _______ _____ _____    ______ ____
ROOT
ATOM      1  C   UNL     1      37.787  13.141   9.338  0.00  0.00    +0.181 A 
ATOM      2  C   UNL     1      37.763  11.924   8.567  0.00  0.00    +0.208 A 
ATOM      3  C   UNL     1      36.703  11.694   7.619  0.00  0.00    +0.234 A 
ATOM      4  O   UNL     1      36.681  10.620   6.938  0.00  0.00    -0.283 OA
ATOM      5  C   UNL     1      35.668  12.679   7.442  0.00  0.00    +0.068 A 
ATOM      6  C   UNL     1      34.608  12.449   6.494  0.00  0.00    +0.015 A 
ATOM      7  C   UNL     1      33.573  13.434   6.318  0.00  0.00    +0.001 A 
ATOM      8  C   UNL     1      32.514  13.203   5.370  0.00  0.00    +0.004 A 
ATOM      9  C   UNL     1      31.479  14.189   5.193  0.00  0.00    +0.047 A 
ATOM     10  C   UNL     1      35.692  13.896   8.213  0.00  0.00    +0.140 A 
ATOM     11  O   UNL     1      38.778  13.357  10.222  0.00  0.00    -0.451 OA
ENDROOT
BRANCH   1  15
ATOM     12  C   UNL     1      33.431  15.259  10.794  0.00  0.00    +0.000 A 
ATOM     13  C   UNL     1      34.546  15.213   9.883  0.00  0.00    +0.001 A 
ATOM     14  C   UNL     1      35.581  14.228  10.061  0.00  0.00    +0.011 A 
ATOM     15  C   UNL     1      36.695  14.182   9.151  0.00  0.00    +0.021 A 
ATOM     16  C   UNL     1      36.775  15.121   8.062  0.00  0.00    +0.011 A 
ATOM     17  C   UNL     1      32.396  16.245  10.616  0.00  0.00    +0.001 A 
ENDBRANCH   1  15
BRANCH   2  18
ATOM     18  O   UNL     1      38.784  10.953   8.741  0.00  0.00    -0.501 OA
ATOM     19  H   UNL     1      38.789  10.179   8.212  0.00  0.00    +0.292 HD
ENDBRANCH   2  18
TORSDOF 2
ENDMDL
MODEL 9
REMARK VINA RESULT:      -5.7     18.155     19.796
REMARK  Name = 
REMARK  2 active torsions:
REMARK  status: ('A' for Active; 'I' for Inactive)
REMARK    1  A    between atoms: C_4  and  C_7
REMARK    2  A    between atoms: C_8  and  O_18
REMARK                            x       y       z     vdW  Elec       q    Type
REMARK                         _______ _______ _______ _____ _____    ______ ____
ROOT
ATOM      1  C   UNL     1       7.689  -3.761  12.701  0.00  0.00    +0.181 A 
ATOM      2  C   UNL     1       6.836  -2.639  13.001  0.00  0.00    +0.208 A 
ATOM      3  C   UNL     1       6.924  -1.990  14.284  0.00  0.00    +0.234 A 
ATOM      4  O   UNL     1       6.171  -1.001  14.549  0.00  0.00    -0.283 OA
ATOM      5  C   UNL     1       7.863  -2.464  15.268  0.00  0.00    +0.068 A 
ATOM      6  C   UNL     1       7.950  -1.816  16.551  0.00  0.00    +0.015 A 
ATOM      7  C   UNL     1       8.890  -2.289  17.535  0.00  0.00    +0.001 A 
ATOM      8  C   UNL     1       8.977  -1.641  18.817  0.00  0.00    +0.004 A 
ATOM      9  C   UNL     1       9.917  -2.113  19.801  0.00  0.00    +0.047 A 
ATOM     10  C   UNL     1       8.716  -3.586  14.968  0.00  0.00    +0.140 A 
ATOM     11  O   UNL     1       7.608  -4.366  11.503  0.00  0.00    -0.451 OA
ENDROOT
BRANCH   1  15
ATOM     12  C   UNL     1      12.353  -3.824  14.657  0.00  0.00    +0.000 A 
ATOM     13  C   UNL     1      10.987  -4.279  14.689  0.00  0.00    +0.001 A 
ATOM     14  C   UNL     1      10.047  -3.805  13.706  0.00  0.00    +0.011 A 
ATOM     15  C   UNL     1       8.681  -4.260  13.739  0.00  0.00    +0.021 A 
ATOM     16  C   UNL     1       8.255  -5.189  14.754  0.00  0.00    +0.011 A 
ATOM     17  C   UNL     1      13.293  -4.298  15.639  0.00  0.00    +0.001 A 
ENDBRANCH   1  15
BRANCH   2  18
ATOM     18  O   UNL     1       5.910  -2.172  12.031  0.00  0.00    -0.501 OA
ATOM     19  H   UNL     1       5.112  -2.639  11.883  0.00  0.00    +0.292 HD
ENDBRANCH   2  18
TORSDOF 2
ENDMDL
