MODEL 1
REMARK VINA RESULT:      -8.1      0.000      0.000
REMARK  Name = 
REMARK  7 active torsions:
REMARK  status: ('A' for Active; 'I' for Inactive)
REMARK    1  A    between atoms: C_1  and  O_2
REMARK    2  A    between atoms: O_2  and  C_3
REMARK    3  A    between atoms: C_4  and  O_23
REMARK    4  A    between atoms: C_7  and  C_9
REMARK    5  A    between atoms: C_10  and  O_22
REMARK    6  A    between atoms: C_14  and  O_21
REMARK    7  A    between atoms: C_16  and  O_20
REMARK                            x       y       z     vdW  Elec       q    Type
REMARK                         _______ _______ _______ _____ _____    ______ ____
ROOT
ATOM      1  C   UNL     1      21.030  11.800  17.385  0.00  0.00    +0.181 A 
ATOM      2  C   UNL     1      21.179  12.862  16.423  0.00  0.00    +0.208 A 
ATOM      3  C   UNL     1      22.485  13.397  16.139  0.00  0.00    +0.238 A 
ATOM      4  O   UNL     1      22.618  14.334  15.290  0.00  0.00    -0.283 OA
ATOM      5  C   UNL     1      23.644  12.871  16.816  0.00  0.00    +0.109 A 
ATOM      6  C   UNL     1      24.950  13.406  16.531  0.00  0.00    +0.135 A 
ATOM      7  C   UNL     1      25.099  14.468  15.569  0.00  0.00    +0.091 A 
ATOM      8  C   UNL     1      23.942  14.994  14.892  0.00  0.00    +0.124 A 
ATOM      9  C   UNL     1      22.636  14.459  15.177  0.00  0.00    +0.092 A 
ATOM     10  C   UNL     1      23.493  11.809  17.778  0.00  0.00    +0.147 A 
ATOM     11  O   UNL     1      19.810  11.300  17.651  0.00  0.00    -0.451 OA
ENDROOT
BRANCH   1  16
ATOM     12  C   UNL     1      21.773   8.290  21.215  0.00  0.00    +0.162 A 
ATOM     13  C   UNL     1      23.090   8.748  20.853  0.00  0.00    +0.158 A 
ATOM     14  C   UNL     1      23.249   9.733  19.815  0.00  0.00    +0.050 A 
ATOM     15  C   UNL     1      22.092  10.260  19.138  0.00  0.00    +0.015 A 
ATOM     16  C   UNL     1      22.251  11.245  18.099  0.00  0.00    +0.025 A 
ATOM     17  C   UNL     1      21.614   7.305  22.253  0.00  0.00    +0.061 A 
BRANCH  12  19
ATOM     18  C   UNL     1      19.362   8.203  20.737  0.00  0.00    +0.277 C 
ATOM     19  O   UNL     1      20.633   8.809  20.548  0.00  0.00    -0.491 OA
ENDBRANCH  12  19
BRANCH  13  20
ATOM     20  O   UNL     1      24.230   8.230  21.521  0.00  0.00    -0.503 OA
ATOM     21  H   UNL     1      24.216   8.112  22.450  0.00  0.00    +0.292 HD
ENDBRANCH  13  20
ENDBRANCH   1  16
BRANCH   8  22
ATOM     22  O   UNL     1      24.089  16.040  13.944  0.00  0.00    -0.507 OA
ATOM     23  H   UNL     1      23.862  15.895  13.046  0.00  0.00    +0.292 HD
ENDBRANCH   8  22
BRANCH   6  24
ATOM     24  O   UNL     1      26.091  12.887  17.198  0.00  0.00    -0.506 OA
ATOM     25  H   UNL     1      26.266  11.966  17.178  0.00  0.00    +0.292 HD
ENDBRANCH   6  24
BRANCH   2  26
ATOM     26  O   UNL     1      20.038  13.381  15.755  0.00  0.00    -0.501 OA
ATOM     27  H   UNL     1      20.091  13.612  14.849  0.00  0.00    +0.292 HD
ENDBRANCH   2  26
TORSDOF 6
ENDMDL
MODEL 2
REMARK VINA RESULT:      -7.8      1.234      7.112
REMARK  Name = 
REMARK  7 active torsions:
REMARK  status: ('A' for Active; 'I' for Inactive)
REMARK    1  A    between atoms: C_1  and  O_2
REMARK    2  A    between atoms: O_2  and  C_3
REMARK    3  A    between atoms: C_4  and  O_23
REMARK    4  A    between atoms: C_7  and  C_9
REMARK    5  A    between atoms: C_10  and  O_22
REMARK    6  A    between atoms: C_14  and  O_21
REMARK    7  A    between atoms: C_16  and  O_20
REMARK                            x       y       z     vdW  Elec       q    Type
REMARK                         _______ _______ _______ _____ _____    ______ ____
ROOT
ATOM      1  C   UNL     1      20.846  11.013  18.208  0.00  0.00    +0.181 A 
ATOM      2  C   UNL     1      20.174  10.084  19.080  0.00  0.00    +0.208 A 
ATOM      3  C   UNL     1      20.935   9.295  20.014  0.00  0.00    +0.238 A 
ATOM      4  O   UNL     1      20.343   8.475  20.785  0.00  0.00    -0.283 OA
ATOM      5  C   UNL     1      22.368   9.433  20.075  0.00  0.00    +0.109 A 
ATOM      6  C   UNL     1      23.129   8.644  21.009  0.00  0.00    +0.135 A 
ATOM      7  C   UNL     1      22.457   7.716  21.882  0.00  0.00    +0.091 A 
ATOM      8  C   UNL     1      21.025   7.577  21.821  0.00  0.00    +0.124 A 
ATOM      9  C   UNL     1      20.265   8.366  20.888  0.00  0.00    +0.092 A 
ATOM     10  C   UNL     1      23.039  10.362  19.202  0.00  0.00    +0.147 A 
ATOM     11  O   UNL     1      20.135  11.750  17.335  0.00  0.00    -0.451 OA
ENDROOT
BRANCH   1  16
ATOM     12  C   UNL     1      24.351  14.084  15.796  0.00  0.00    +0.162 A 
ATOM     13  C   UNL     1      25.118  13.248  16.682  0.00  0.00    +0.158 A 
ATOM     14  C   UNL     1      24.454  12.273  17.507  0.00  0.00    +0.050 A 
ATOM     15  C   UNL     1      23.021  12.134  17.447  0.00  0.00    +0.015 A 
ATOM     16  C   UNL     1      22.357  11.159  18.272  0.00  0.00    +0.025 A 
ATOM     17  C   UNL     1      25.015  15.059  14.970  0.00  0.00    +0.061 A 
BRANCH  12  19
ATOM     18  C   UNL     1      22.167  14.874  14.987  0.00  0.00    +0.277 C 
ATOM     19  O   UNL     1      22.939  13.947  15.735  0.00  0.00    -0.491 OA
ENDBRANCH  12  19
BRANCH  13  20
ATOM     20  O   UNL     1      26.531  13.385  16.742  0.00  0.00    -0.503 OA
ATOM     21  H   UNL     1      26.919  14.237  16.746  0.00  0.00    +0.292 HD
ENDBRANCH  13  20
ENDBRANCH   1  16
BRANCH   8  22
ATOM     22  O   UNL     1      20.363   6.662  22.682  0.00  0.00    -0.507 OA
ATOM     23  H   UNL     1      20.433   5.740  22.529  0.00  0.00    +0.292 HD
ENDBRANCH   8  22
BRANCH   6  24
ATOM     24  O   UNL     1      24.541   8.781  21.070  0.00  0.00    -0.506 OA
ATOM     25  H   UNL     1      24.942   9.164  21.825  0.00  0.00    +0.292 HD
ENDBRANCH   6  24
BRANCH   2  26
ATOM     26  O   UNL     1      18.762   9.947  19.021  0.00  0.00    -0.501 OA
ATOM     27  H   UNL     1      18.378   9.102  18.892  0.00  0.00    +0.292 HD
ENDBRANCH   2  26
TORSDOF 6
ENDMDL
MODEL 3
REMARK VINA RESULT:      -7.4      2.643      8.564
REMARK  Name = 
REMARK  7 active torsions:
REMARK  status: ('A' for Active; 'I' for Inactive)
REMARK    1  A    between atoms: C_1  and  O_2
REMARK    2  A    between atoms: O_2  and  C_3
REMARK    3  A    between atoms: C_4  and  O_23
REMARK    4  A    between atoms: C_7  and  C_9
REMARK    5  A    between atoms: C_10  and  O_22
REMARK    6  A    between atoms: C_14  and  O_21
REMARK    7  A    between atoms: C_16  and  O_20
REMARK                            x       y       z     vdW  Elec       q    Type
REMARK                         _______ _______ _______ _____ _____    ______ ____
ROOT
ATOM      1  C   UNL     1      20.482   9.265  20.413  0.00  0.00    +0.181 A 
ATOM      2  C   UNL     1      20.011   7.934  20.699  0.00  0.00    +0.208 A 
ATOM      3  C   UNL     1      18.678   7.545  20.318  0.00  0.00    +0.238 A 
ATOM      4  O   UNL     1      18.262   6.370  20.569  0.00  0.00    -0.283 OA
ATOM      5  C   UNL     1      17.814   8.487  19.651  0.00  0.00    +0.109 A 
ATOM      6  C   UNL     1      16.481   8.098  19.271  0.00  0.00    +0.135 A 
ATOM      7  C   UNL     1      16.010   6.767  19.556  0.00  0.00    +0.091 A 
ATOM      8  C   UNL     1      16.873   5.825  20.222  0.00  0.00    +0.124 A 
ATOM      9  C   UNL     1      18.206   6.214  20.603  0.00  0.00    +0.092 A 
ATOM     10  C   UNL     1      18.286   9.818  19.366  0.00  0.00    +0.147 A 
ATOM     11  O   UNL     1      21.727   9.629  20.768  0.00  0.00    -0.451 OA
ENDROOT
BRANCH   1  16
ATOM     12  C   UNL     1      21.268  13.351  17.216  0.00  0.00    +0.162 A 
ATOM     13  C   UNL     1      19.840  13.262  17.381  0.00  0.00    +0.158 A 
ATOM     14  C   UNL     1      19.275  12.231  18.212  0.00  0.00    +0.050 A 
ATOM     15  C   UNL     1      20.137  11.289  18.879  0.00  0.00    +0.015 A 
ATOM     16  C   UNL     1      19.571  10.258  19.710  0.00  0.00    +0.025 A 
ATOM     17  C   UNL     1      21.833  14.382  16.384  0.00  0.00    +0.061 A 
BRANCH  12  19
ATOM     18  C   UNL     1      23.350  12.044  17.277  0.00  0.00    +0.277 C 
ATOM     19  O   UNL     1      22.118  12.423  17.873  0.00  0.00    -0.491 OA
ENDBRANCH  12  19
BRANCH  13  20
ATOM     20  O   UNL     1      18.990  14.191  16.724  0.00  0.00    -0.503 OA
ATOM     21  H   UNL     1      18.263  13.885  16.219  0.00  0.00    +0.292 HD
ENDBRANCH  13  20
ENDBRANCH   1  16
BRANCH   8  22
ATOM     22  O   UNL     1      16.409   4.513  20.503  0.00  0.00    -0.507 OA
ATOM     23  H   UNL     1      16.228   4.259  21.387  0.00  0.00    +0.292 HD
ENDBRANCH   8  22
BRANCH   6  24
ATOM     24  O   UNL     1      15.631   9.026  18.614  0.00  0.00    -0.506 OA
ATOM     25  H   UNL     1      15.066   9.580  19.116  0.00  0.00    +0.292 HD
ENDBRANCH   6  24
BRANCH   2  26
ATOM     26  O   UNL     1      20.861   7.005  21.355  0.00  0.00    -0.501 OA
ATOM     27  H   UNL     1      20.718   6.795  22.257  0.00  0.00    +0.292 HD
ENDBRANCH   2  26
TORSDOF 6
ENDMDL
MODEL 4
REMARK VINA RESULT:      -7.3      2.337      7.223
REMARK  Name = 
REMARK  7 active torsions:
REMARK  status: ('A' for Active; 'I' for Inactive)
REMARK    1  A    between atoms: C_1  and  O_2
REMARK    2  A    between atoms: O_2  and  C_3
REMARK    3  A    between atoms: C_4  and  O_23
REMARK    4  A    between atoms: C_7  and  C_9
REMARK    5  A    between atoms: C_10  and  O_22
REMARK    6  A    between atoms: C_14  and  O_21
REMARK    7  A    between atoms: C_16  and  O_20
REMARK                            x       y       z     vdW  Elec       q    Type
REMARK                         _______ _______ _______ _____ _____    ______ ____
ROOT
ATOM      1  C   UNL     1      20.230  14.434  16.362  0.00  0.00    +0.181 A 
ATOM      2  C   UNL     1      19.383  13.665  17.238  0.00  0.00    +0.208 A 
ATOM      3  C   UNL     1      19.846  12.407  17.764  0.00  0.00    +0.238 A 
ATOM      4  O   UNL     1      19.100  11.728  18.538  0.00  0.00    -0.283 OA
ATOM      5  C   UNL     1      21.155  11.917  17.414  0.00  0.00    +0.109 A 
ATOM      6  C   UNL     1      21.618  10.659  17.941  0.00  0.00    +0.135 A 
ATOM      7  C   UNL     1      20.772   9.890  18.817  0.00  0.00    +0.091 A 
ATOM      8  C   UNL     1      19.464  10.379  19.167  0.00  0.00    +0.124 A 
ATOM      9  C   UNL     1      19.001  11.637  18.641  0.00  0.00    +0.092 A 
ATOM     10  C   UNL     1      22.001  12.686  16.538  0.00  0.00    +0.147 A 
ATOM     11  O   UNL     1      19.798  15.609  15.870  0.00  0.00    -0.451 OA
ENDROOT
BRANCH   1  16
ATOM     12  C   UNL     1      24.789  16.702  15.094  0.00  0.00    +0.162 A 
ATOM     13  C   UNL     1      25.038  15.284  15.043  0.00  0.00    +0.158 A 
ATOM     14  C   UNL     1      23.979  14.356  15.343  0.00  0.00    +0.050 A 
ATOM     15  C   UNL     1      22.669  14.845  15.693  0.00  0.00    +0.015 A 
ATOM     16  C   UNL     1      21.610  13.917  15.993  0.00  0.00    +0.025 A 
ATOM     17  C   UNL     1      25.848  17.630  14.794  0.00  0.00    +0.061 A 
BRANCH  12  19
ATOM     18  C   UNL     1      23.119  18.507  15.089  0.00  0.00    +0.277 C 
ATOM     19  O   UNL     1      23.499  17.184  15.438  0.00  0.00    -0.491 OA
ENDBRANCH  12  19
BRANCH  13  20
ATOM     20  O   UNL     1      26.328  14.802  14.698  0.00  0.00    -0.503 OA
ATOM     21  H   UNL     1      26.888  15.313  14.148  0.00  0.00    +0.292 HD
ENDBRANCH  13  20
ENDBRANCH   1  16
BRANCH   8  22
ATOM     22  O   UNL     1      18.630   9.622  20.032  0.00  0.00    -0.507 OA
ATOM     23  H   UNL     1      17.706   9.776  20.046  0.00  0.00    +0.292 HD
ENDBRANCH   8  22
BRANCH   6  24
ATOM     24  O   UNL     1      22.908  10.176  17.596  0.00  0.00    -0.506 OA
ATOM     25  H   UNL     1      23.571  10.100  18.254  0.00  0.00    +0.292 HD
ENDBRANCH   6  24
BRANCH   2  26
ATOM     26  O   UNL     1      18.093  14.148  17.584  0.00  0.00    -0.501 OA
ATOM     27  H   UNL     1      17.672  13.842  18.363  0.00  0.00    +0.292 HD
ENDBRANCH   2  26
TORSDOF 6
ENDMDL
MODEL 5
REMARK VINA RESULT:      -6.9      3.477      6.076
REMARK  Name = 
REMARK  7 active torsions:
REMARK  status: ('A' for Active; 'I' for Inactive)
REMARK    1  A    between atoms: C_1  and  O_2
REMARK    2  A    between atoms: O_2  and  C_3
REMARK    3  A    between atoms: C_4  and  O_23
REMARK    4  A    between atoms: C_7  and  C_9
REMARK    5  A    between atoms: C_10  and  O_22
REMARK    6  A    between atoms: C_14  and  O_21
REMARK    7  A    between atoms: C_16  and  O_20
REMARK                            x       y       z     vdW  Elec       q    Type
REMARK                         _______ _______ _______ _____ _____    ______ ____
ROOT
ATOM      1  C   UNL     1      17.852   9.050  19.276  0.00  0.00    +0.181 A 
ATOM      2  C   UNL     1      18.770  10.066  18.828  0.00  0.00    +0.208 A 
ATOM      3  C   UNL     1      20.187   9.885  19.009  0.00  0.00    +0.238 A 
ATOM      4  O   UNL     1      20.998  10.780  18.614  0.00  0.00    -0.283 OA
ATOM      5  C   UNL     1      20.687   8.688  19.638  0.00  0.00    +0.109 A 
ATOM      6  C   UNL     1      22.104   8.508  19.819  0.00  0.00    +0.135 A 
ATOM      7  C   UNL     1      23.023   9.523  19.371  0.00  0.00    +0.091 A 
ATOM      8  C   UNL     1      22.524  10.719  18.743  0.00  0.00    +0.124 A 
ATOM      9  C   UNL     1      21.107  10.900  18.562  0.00  0.00    +0.092 A 
ATOM     10  C   UNL     1      19.768   7.674  20.086  0.00  0.00    +0.147 A 
ATOM     11  O   UNL     1      16.528   9.219  19.107  0.00  0.00    -0.451 OA
ENDROOT
BRANCH   1  16
ATOM     12  C   UNL     1      15.619   4.895  21.575  0.00  0.00    +0.162 A 
ATOM     13  C   UNL     1      17.038   4.664  21.659  0.00  0.00    +0.158 A 
ATOM     14  C   UNL     1      17.958   5.628  21.114  0.00  0.00    +0.050 A 
ATOM     15  C   UNL     1      17.459   6.824  20.485  0.00  0.00    +0.015 A 
ATOM     16  C   UNL     1      18.379   7.788  19.939  0.00  0.00    +0.025 A 
ATOM     17  C   UNL     1      14.699   3.930  22.120  0.00  0.00    +0.061 A 
BRANCH  12  19
ATOM     18  C   UNL     1      13.894   6.044  20.251  0.00  0.00    +0.277 C 
ATOM     19  O   UNL     1      15.127   6.074  20.956  0.00  0.00    -0.491 OA
ENDBRANCH  12  19
BRANCH  13  20
ATOM     20  O   UNL     1      17.530   3.485  22.279  0.00  0.00    -0.503 OA
ATOM     21  H   UNL     1      17.281   2.644  21.951  0.00  0.00    +0.292 HD
ENDBRANCH  13  20
ENDBRANCH   1  16
BRANCH   8  22
ATOM     22  O   UNL     1      23.429  11.720  18.301  0.00  0.00    -0.507 OA
ATOM     23  H   UNL     1      24.007  11.545  17.584  0.00  0.00    +0.292 HD
ENDBRANCH   8  22
BRANCH   6  24
ATOM     24  O   UNL     1      22.596   7.329  20.439  0.00  0.00    -0.506 OA
ATOM     25  H   UNL     1      22.037   6.824  20.996  0.00  0.00    +0.292 HD
ENDBRANCH   6  24
BRANCH   2  26
ATOM     26  O   UNL     1      18.278  11.244  18.208  0.00  0.00    -0.501 OA
ATOM     27  H   UNL     1      17.809  11.187  17.399  0.00  0.00    +0.292 HD
ENDBRANCH   2  26
TORSDOF 6
ENDMDL
MODEL 6
REMARK VINA RESULT:      -6.8     17.875     20.456
REMARK  Name = 
REMARK  7 active torsions:
REMARK  status: ('A' for Active; 'I' for Inactive)
REMARK    1  A    between atoms: C_1  and  O_2
REMARK    2  A    between atoms: O_2  and  C_3
REMARK    3  A    between atoms: C_4  and  O_23
REMARK    4  A    between atoms: C_7  and  C_9
REMARK    5  A    between atoms: C_10  and  O_22
REMARK    6  A    between atoms: C_14  and  O_21
REMARK    7  A    between atoms: C_16  and  O_20
REMARK                            x       y       z     vdW  Elec       q    Type
REMARK                         _______ _______ _______ _____ _____    ______ ____
ROOT
ATOM      1  C   UNL     1      18.923   9.651  -3.054  0.00  0.00    +0.181 A 
ATOM      2  C   UNL     1      20.222   9.272  -2.563  0.00  0.00    +0.208 A 
ATOM      3  C   UNL     1      20.686   9.772  -1.294  0.00  0.00    +0.238 A 
ATOM      4  O   UNL     1      21.833   9.437  -0.860  0.00  0.00    -0.283 OA
ATOM      5  C   UNL     1      19.851  10.652  -0.517  0.00  0.00    +0.109 A 
ATOM      6  C   UNL     1      20.315  11.152   0.751  0.00  0.00    +0.135 A 
ATOM      7  C   UNL     1      21.614  10.772   1.243  0.00  0.00    +0.091 A 
ATOM      8  C   UNL     1      22.449   9.893   0.467  0.00  0.00    +0.124 A 
ATOM      9  C   UNL     1      21.985   9.393  -0.801  0.00  0.00    +0.092 A 
ATOM     10  C   UNL     1      18.552  11.031  -1.010  0.00  0.00    +0.147 A 
ATOM     11  O   UNL     1      18.489   9.184  -4.239  0.00  0.00    -0.451 OA
ENDROOT
BRANCH   1  16
ATOM     12  C   UNL     1      13.764   9.979  -2.149  0.00  0.00    +0.162 A 
ATOM     13  C   UNL     1      14.354  11.058  -1.402  0.00  0.00    +0.158 A 
ATOM     14  C   UNL     1      15.780  11.259  -1.430  0.00  0.00    +0.050 A 
ATOM     15  C   UNL     1      16.616  10.379  -2.207  0.00  0.00    +0.015 A 
ATOM     16  C   UNL     1      18.042  10.580  -2.235  0.00  0.00    +0.025 A 
ATOM     17  C   UNL     1      12.338   9.778  -2.121  0.00  0.00    +0.061 A 
BRANCH  12  19
ATOM     18  C   UNL     1      14.077   7.868  -3.373  0.00  0.00    +0.277 C 
ATOM     19  O   UNL     1      14.587   9.112  -2.915  0.00  0.00    -0.491 OA
ENDBRANCH  12  19
BRANCH  13  20
ATOM     20  O   UNL     1      13.531  11.926  -0.636  0.00  0.00    -0.503 OA
ATOM     21  H   UNL     1      13.588  12.853  -0.756  0.00  0.00    +0.292 HD
ENDBRANCH  13  20
ENDBRANCH   1  16
BRANCH   8  22
ATOM     22  O   UNL     1      23.730   9.518   0.952  0.00  0.00    -0.507 OA
ATOM     23  H   UNL     1      24.409  10.160   1.028  0.00  0.00    +0.292 HD
ENDBRANCH   8  22
BRANCH   6  24
ATOM     24  O   UNL     1      19.491  12.019   1.517  0.00  0.00    -0.506 OA
ATOM     25  H   UNL     1      19.798  12.874   1.747  0.00  0.00    +0.292 HD
ENDBRANCH   6  24
BRANCH   2  26
ATOM     26  O   UNL     1      21.046   8.404  -3.328  0.00  0.00    -0.501 OA
ATOM     27  H   UNL     1      20.819   7.499  -3.414  0.00  0.00    +0.292 HD
ENDBRANCH   2  26
TORSDOF 6
ENDMDL
MODEL 7
REMARK VINA RESULT:      -6.8      5.019     10.591
REMARK  Name = 
REMARK  7 active torsions:
REMARK  status: ('A' for Active; 'I' for Inactive)
REMARK    1  A    between atoms: C_1  and  O_2
REMARK    2  A    between atoms: O_2  and  C_3
REMARK    3  A    between atoms: C_4  and  O_23
REMARK    4  A    between atoms: C_7  and  C_9
REMARK    5  A    between atoms: C_10  and  O_22
REMARK    6  A    between atoms: C_14  and  O_21
REMARK    7  A    between atoms: C_16  and  O_20
REMARK                            x       y       z     vdW  Elec       q    Type
REMARK                         _______ _______ _______ _____ _____    ______ ____
ROOT
ATOM      1  C   UNL     1      16.579   6.677  19.960  0.00  0.00    +0.181 A 
ATOM      2  C   UNL     1      15.303   6.153  20.375  0.00  0.00    +0.208 A 
ATOM      3  C   UNL     1      15.229   5.228  21.476  0.00  0.00    +0.238 A 
ATOM      4  O   UNL     1      14.103   4.765  21.843  0.00  0.00    -0.283 OA
ATOM      5  C   UNL     1      16.430   4.827  22.164  0.00  0.00    +0.109 A 
ATOM      6  C   UNL     1      16.356   3.903  23.265  0.00  0.00    +0.135 A 
ATOM      7  C   UNL     1      15.080   3.378  23.680  0.00  0.00    +0.091 A 
ATOM      8  C   UNL     1      13.879   3.779  22.994  0.00  0.00    +0.124 A 
ATOM      9  C   UNL     1      13.953   4.703  21.892  0.00  0.00    +0.092 A 
ATOM     10  C   UNL     1      17.705   5.352  21.748  0.00  0.00    +0.147 A 
ATOM     11  O   UNL     1      16.649   7.541  18.931  0.00  0.00    -0.451 OA
ENDROOT
BRANCH   1  16
ATOM     12  C   UNL     1      21.303   8.846  20.680  0.00  0.00    +0.162 A 
ATOM     13  C   UNL     1      21.352   7.582  21.368  0.00  0.00    +0.158 A 
ATOM     14  C   UNL     1      20.200   6.718  21.370  0.00  0.00    +0.050 A 
ATOM     15  C   UNL     1      18.998   7.118  20.683  0.00  0.00    +0.015 A 
ATOM     16  C   UNL     1      17.846   6.255  20.685  0.00  0.00    +0.025 A 
ATOM     17  C   UNL     1      22.455   9.710  20.678  0.00  0.00    +0.061 A 
BRANCH  12  19
ATOM     18  C   UNL     1      19.795  10.618  19.882  0.00  0.00    +0.277 C 
ATOM     19  O   UNL     1      20.119   9.241  20.003  0.00  0.00    -0.491 OA
ENDBRANCH  12  19
BRANCH  13  20
ATOM     20  O   UNL     1      22.536   7.187  22.045  0.00  0.00    -0.503 OA
ATOM     21  H   UNL     1      23.015   6.437  21.752  0.00  0.00    +0.292 HD
ENDBRANCH  13  20
ENDBRANCH   1  16
BRANCH   8  22
ATOM     22  O   UNL     1      12.621   3.262  23.403  0.00  0.00    -0.507 OA
ATOM     23  H   UNL     1      12.569   2.687  24.141  0.00  0.00    +0.292 HD
ENDBRANCH   8  22
BRANCH   6  24
ATOM     24  O   UNL     1      17.540   3.508  23.942  0.00  0.00    -0.506 OA
ATOM     25  H   UNL     1      18.300   3.264  23.452  0.00  0.00    +0.292 HD
ENDBRANCH   6  24
BRANCH   2  26
ATOM     26  O   UNL     1      14.119   6.548  19.698  0.00  0.00    -0.501 OA
ATOM     27  H   UNL     1      13.886   6.143  18.886  0.00  0.00    +0.292 HD
ENDBRANCH   2  26
TORSDOF 6
ENDMDL
MODEL 8
REMARK VINA RESULT:      -6.7      5.799     11.409
REMARK  Name = 
REMARK  7 active torsions:
REMARK  status: ('A' for Active; 'I' for Inactive)
REMARK    1  A    between atoms: C_1  and  O_2
REMARK    2  A    between atoms: O_2  and  C_3
REMARK    3  A    between atoms: C_4  and  O_23
REMARK    4  A    between atoms: C_7  and  C_9
REMARK    5  A    between atoms: C_10  and  O_22
REMARK    6  A    between atoms: C_14  and  O_21
REMARK    7  A    between atoms: C_16  and  O_20
REMARK                            x       y       z     vdW  Elec       q    Type
REMARK                         _______ _______ _______ _____ _____    ______ ____
ROOT
ATOM      1  C   UNL     1      15.530   4.887  21.130  0.00  0.00    +0.181 A 
ATOM      2  C   UNL     1      14.678   4.760  22.285  0.00  0.00    +0.208 A 
ATOM      3  C   UNL     1      15.231   4.900  23.607  0.00  0.00    +0.238 A 
ATOM      4  O   UNL     1      14.479   4.788  24.626  0.00  0.00    -0.283 OA
ATOM      5  C   UNL     1      16.637   5.169  23.775  0.00  0.00    +0.109 A 
ATOM      6  C   UNL     1      17.190   5.309  25.097  0.00  0.00    +0.135 A 
ATOM      7  C   UNL     1      16.338   5.182  26.252  0.00  0.00    +0.091 A 
ATOM      8  C   UNL     1      14.933   4.914  26.084  0.00  0.00    +0.124 A 
ATOM      9  C   UNL     1      14.380   4.774  24.762  0.00  0.00    +0.092 A 
ATOM     10  C   UNL     1      17.488   5.295  22.620  0.00  0.00    +0.147 A 
ATOM     11  O   UNL     1      15.014   4.756  19.895  0.00  0.00    -0.451 OA
ENDROOT
BRANCH   1  16
ATOM     12  C   UNL     1      18.621   9.030  20.221  0.00  0.00    +0.162 A 
ATOM     13  C   UNL     1      19.490   8.012  20.752  0.00  0.00    +0.158 A 
ATOM     14  C   UNL     1      18.954   6.725  21.114  0.00  0.00    +0.050 A 
ATOM     15  C   UNL     1      17.548   6.456  20.946  0.00  0.00    +0.015 A 
ATOM     16  C   UNL     1      17.013   5.170  21.308  0.00  0.00    +0.025 A 
ATOM     17  C   UNL     1      19.156  10.317  19.859  0.00  0.00    +0.061 A 
BRANCH  12  19
ATOM     18  C   UNL     1      16.580   9.143  18.854  0.00  0.00    +0.277 C 
ATOM     19  O   UNL     1      17.236   8.766  20.055  0.00  0.00    -0.491 OA
ENDBRANCH  12  19
BRANCH  13  20
ATOM     20  O   UNL     1      20.875   8.276  20.917  0.00  0.00    -0.503 OA
ATOM     21  H   UNL     1      21.224   8.427  21.772  0.00  0.00    +0.292 HD
ENDBRANCH  13  20
ENDBRANCH   1  16
BRANCH   8  22
ATOM     22  O   UNL     1      14.093   4.789  27.222  0.00  0.00    -0.507 OA
ATOM     23  H   UNL     1      13.204   5.084  27.183  0.00  0.00    +0.292 HD
ENDBRANCH   8  22
BRANCH   6  24
ATOM     24  O   UNL     1      18.575   5.574  25.263  0.00  0.00    -0.506 OA
ATOM     25  H   UNL     1      18.934   6.389  24.971  0.00  0.00    +0.292 HD
ENDBRANCH   6  24
BRANCH   2  26
ATOM     26  O   UNL     1      13.292   4.496  22.119  0.00  0.00    -0.501 OA
ATOM     27  H   UNL     1      12.874   3.843  22.644  0.00  0.00    +0.292 HD
ENDBRANCH   2  26
TORSDOF 6
ENDMDL
MODEL 9
REMARK VINA RESULT:      -6.6     22.049     24.394
REMARK  Name = 
REMARK  7 active torsions:
REMARK  status: ('A' for Active; 'I' for Inactive)
REMARK    1  A    between atoms: C_1  and  O_2
REMARK    2  A    between atoms: O_2  and  C_3
REMARK    3  A    between atoms: C_4  and  O_23
REMARK    4  A    between atoms: C_7  and  C_9
REMARK    5  A    between atoms: C_10  and  O_22
REMARK    6  A    between atoms: C_14  and  O_21
REMARK    7  A    between atoms: C_16  and  O_20
REMARK                            x       y       z     vdW  Elec       q    Type
REMARK                         _______ _______ _______ _____ _____    ______ ____
ROOT
ATOM      1  C   UNL     1      48.479  12.110  21.236  0.00  0.00    +0.181 A 
ATOM      2  C   UNL     1      47.927  13.182  20.447  0.00  0.00    +0.208 A 
ATOM      3  C   UNL     1      46.600  13.064  19.901  0.00  0.00    +0.238 A 
ATOM      4  O   UNL     1      46.113  14.010  19.205  0.00  0.00    -0.283 OA
ATOM      5  C   UNL     1      45.823  11.875  20.143  0.00  0.00    +0.109 A 
ATOM      6  C   UNL     1      44.496  11.758  19.597  0.00  0.00    +0.135 A 
ATOM      7  C   UNL     1      43.944  12.830  18.808  0.00  0.00    +0.091 A 
ATOM      8  C   UNL     1      44.720  14.019  18.566  0.00  0.00    +0.124 A 
ATOM      9  C   UNL     1      46.047  14.136  19.112  0.00  0.00    +0.092 A 
ATOM     10  C   UNL     1      46.375  10.804  20.932  0.00  0.00    +0.147 A 
ATOM     11  O   UNL     1      49.718  12.219  21.745  0.00  0.00    -0.451 OA
ENDROOT
BRANCH   1  16
ATOM     12  C   UNL     1      46.505   9.815  25.522  0.00  0.00    +0.162 A 
ATOM     13  C   UNL     1      46.114   8.973  24.422  0.00  0.00    +0.158 A 
ATOM     14  C   UNL     1      46.498   9.320  23.078  0.00  0.00    +0.050 A 
ATOM     15  C   UNL     1      47.275  10.509  22.835  0.00  0.00    +0.015 A 
ATOM     16  C   UNL     1      47.660  10.856  21.491  0.00  0.00    +0.025 A 
ATOM     17  C   UNL     1      46.120   9.468  26.866  0.00  0.00    +0.061 A 
BRANCH  12  19
ATOM     18  C   UNL     1      48.043  11.556  26.330  0.00  0.00    +0.277 C 
ATOM     19  O   UNL     1      47.271  10.987  25.283  0.00  0.00    -0.491 OA
ENDBRANCH  12  19
BRANCH  13  20
ATOM     20  O   UNL     1      45.349   7.801  24.661  0.00  0.00    -0.503 OA
ATOM     21  H   UNL     1      45.427   7.350  25.478  0.00  0.00    +0.292 HD
ENDBRANCH  13  20
ENDBRANCH   1  16
BRANCH   8  22
ATOM     22  O   UNL     1      44.176  15.075  17.789  0.00  0.00    -0.507 OA
ATOM     23  H   UNL     1      43.861  15.852  18.209  0.00  0.00    +0.292 HD
ENDBRANCH   8  22
BRANCH   6  24
ATOM     24  O   UNL     1      43.730  10.586  19.836  0.00  0.00    -0.506 OA
ATOM     25  H   UNL     1      43.368  10.429  20.686  0.00  0.00    +0.292 HD
ENDBRANCH   6  24
BRANCH   2  26
ATOM     26  O   UNL     1      48.692  14.354  20.208  0.00  0.00    -0.501 OA
ATOM     27  H   UNL     1      48.273  15.131  19.895  0.00  0.00    +0.292 HD
ENDBRANCH   2  26
TORSDOF 6
ENDMDL
