MODEL 1
REMARK VINA RESULT:      -3.9      0.000      0.000
REMARK  Name = 
REMARK  0 active torsions:
REMARK  status: ('A' for Active; 'I' for Inactive)
REMARK                            x       y       z     vdW  Elec       q    Type
REMARK                         _______ _______ _______ _____ _____    ______ ____
ROOT
ATOM      1  C   UNL     1      23.658  13.454  17.832  0.00  0.00    +0.105 C 
ATOM      2  C   UNL     1      24.718  13.048  16.821  0.00  0.00    +0.105 C 
ATOM      3  C   UNL     1      25.368  14.294  16.239  0.00  0.00    +0.220 C 
ATOM      4  O   UNL     1      24.991  15.445  16.623  0.00  0.00    -0.275 OA
ATOM      5  N   UNL     1      26.430  14.167  15.232  0.00  0.00    -0.256 N 
ATOM      6  C   UNL     1      23.010  12.209  18.413  0.00  0.00    +0.220 C 
ATOM      7  O   UNL     1      22.091  12.319  19.285  0.00  0.00    -0.275 OA
ATOM      8  H   UNL     1      27.139  14.318  14.565  0.00  0.00    +0.157 HD
ENDROOT
TORSDOF 0
ENDMDL
MODEL 2
REMARK VINA RESULT:      -3.9      3.122      4.357
REMARK  Name = 
REMARK  0 active torsions:
REMARK  status: ('A' for Active; 'I' for Inactive)
REMARK                            x       y       z     vdW  Elec       q    Type
REMARK                         _______ _______ _______ _____ _____    ______ ____
ROOT
ATOM      1  C   UNL     1      22.902  12.587  17.803  0.00  0.00    +0.105 C 
ATOM      2  C   UNL     1      22.859  11.611  16.639  0.00  0.00    +0.105 C 
ATOM      3  C   UNL     1      21.650  10.701  16.783  0.00  0.00    +0.220 C 
ATOM      4  O   UNL     1      20.868  10.837  17.776  0.00  0.00    -0.275 OA
ATOM      5  N   UNL     1      21.385   9.663  15.777  0.00  0.00    -0.256 N 
ATOM      6  C   UNL     1      24.110  13.496  17.657  0.00  0.00    +0.220 C 
ATOM      7  O   UNL     1      24.339  14.394  18.528  0.00  0.00    -0.275 OA
ATOM      8  H   UNL     1      21.022   8.921  15.241  0.00  0.00    +0.157 HD
ENDROOT
TORSDOF 0
ENDMDL
MODEL 3
REMARK VINA RESULT:      -3.8     20.568     20.858
REMARK  Name = 
REMARK  0 active torsions:
REMARK  status: ('A' for Active; 'I' for Inactive)
REMARK                            x       y       z     vdW  Elec       q    Type
REMARK                         _______ _______ _______ _____ _____    ______ ____
ROOT
ATOM      1  C   UNL     1      45.284  12.195  19.699  0.00  0.00    +0.105 C 
ATOM      2  C   UNL     1      44.310  13.050  18.905  0.00  0.00    +0.105 C 
ATOM      3  C   UNL     1      44.964  14.380  18.565  0.00  0.00    +0.220 C 
ATOM      4  O   UNL     1      46.152  14.620  18.947  0.00  0.00    -0.275 OA
ATOM      5  N   UNL     1      44.222  15.390  17.797  0.00  0.00    -0.256 N 
ATOM      6  C   UNL     1      44.630  10.865  20.037  0.00  0.00    +0.220 C 
ATOM      7  O   UNL     1      45.272   9.992  20.701  0.00  0.00    -0.275 OA
ATOM      8  H   UNL     1      43.924  16.191  17.308  0.00  0.00    +0.157 HD
ENDROOT
TORSDOF 0
ENDMDL
MODEL 4
REMARK VINA RESULT:      -3.7     10.106     11.599
REMARK  Name = 
REMARK  0 active torsions:
REMARK  status: ('A' for Active; 'I' for Inactive)
REMARK                            x       y       z     vdW  Elec       q    Type
REMARK                         _______ _______ _______ _____ _____    ______ ____
ROOT
ATOM      1  C   UNL     1      16.667   7.582  19.397  0.00  0.00    +0.105 C 
ATOM      2  C   UNL     1      15.326   6.882  19.551  0.00  0.00    +0.105 C 
ATOM      3  C   UNL     1      15.552   5.448  20.004  0.00  0.00    +0.220 C 
ATOM      4  O   UNL     1      16.734   5.019  20.189  0.00  0.00    -0.275 OA
ATOM      5  N   UNL     1      14.404   4.558  20.226  0.00  0.00    -0.256 N 
ATOM      6  C   UNL     1      16.440   9.015  18.945  0.00  0.00    +0.220 C 
ATOM      7  O   UNL     1      17.433   9.785  18.753  0.00  0.00    -0.275 OA
ATOM      8  H   UNL     1      13.804   3.804  20.431  0.00  0.00    +0.157 HD
ENDROOT
TORSDOF 0
ENDMDL
MODEL 5
REMARK VINA RESULT:      -3.7      4.071      4.722
REMARK  Name = 
REMARK  0 active torsions:
REMARK  status: ('A' for Active; 'I' for Inactive)
REMARK                            x       y       z     vdW  Elec       q    Type
REMARK                         _______ _______ _______ _____ _____    ______ ____
ROOT
ATOM      1  C   UNL     1      21.483  13.251  16.664  0.00  0.00    +0.105 C 
ATOM      2  C   UNL     1      20.730  11.963  16.374  0.00  0.00    +0.105 C 
ATOM      3  C   UNL     1      21.699  10.792  16.403  0.00  0.00    +0.220 C 
ATOM      4  O   UNL     1      22.930  10.992  16.644  0.00  0.00    -0.275 OA
ATOM      5  N   UNL     1      21.211   9.428  16.150  0.00  0.00    -0.256 N 
ATOM      6  C   UNL     1      20.514  14.421  16.636  0.00  0.00    +0.220 C 
ATOM      7  O   UNL     1      20.935  15.601  16.855  0.00  0.00    -0.275 OA
ATOM      8  H   UNL     1      21.113   8.458  16.014  0.00  0.00    +0.157 HD
ENDROOT
TORSDOF 0
ENDMDL
MODEL 6
REMARK VINA RESULT:      -3.6     20.368     20.894
REMARK  Name = 
REMARK  0 active torsions:
REMARK  status: ('A' for Active; 'I' for Inactive)
REMARK                            x       y       z     vdW  Elec       q    Type
REMARK                         _______ _______ _______ _____ _____    ______ ____
ROOT
ATOM      1  C   UNL     1      44.404  13.819  18.734  0.00  0.00    +0.105 C 
ATOM      2  C   UNL     1      45.414  13.147  19.650  0.00  0.00    +0.105 C 
ATOM      3  C   UNL     1      44.820  11.860  20.202  0.00  0.00    +0.220 C 
ATOM      4  O   UNL     1      43.644  11.510  19.872  0.00  0.00    -0.275 OA
ATOM      5  N   UNL     1      45.606  11.023  21.120  0.00  0.00    -0.256 N 
ATOM      6  C   UNL     1      44.998  15.104  18.182  0.00  0.00    +0.220 C 
ATOM      7  O   UNL     1      44.318  15.828  17.388  0.00  0.00    -0.275 OA
ATOM      8  H   UNL     1      45.938  10.326  21.730  0.00  0.00    +0.157 HD
ENDROOT
TORSDOF 0
ENDMDL
MODEL 7
REMARK VINA RESULT:      -3.5      5.031      6.494
REMARK  Name = 
REMARK  0 active torsions:
REMARK  status: ('A' for Active; 'I' for Inactive)
REMARK                            x       y       z     vdW  Elec       q    Type
REMARK                         _______ _______ _______ _____ _____    ______ ____
ROOT
ATOM      1  C   UNL     1      22.159   9.831  19.352  0.00  0.00    +0.105 C 
ATOM      2  C   UNL     1      23.388   9.328  20.091  0.00  0.00    +0.105 C 
ATOM      3  C   UNL     1      22.955   8.530  21.311  0.00  0.00    +0.220 C 
ATOM      4  O   UNL     1      21.719   8.380  21.566  0.00  0.00    -0.275 OA
ATOM      5  N   UNL     1      23.966   7.935  22.196  0.00  0.00    -0.256 N 
ATOM      6  C   UNL     1      22.592  10.627  18.132  0.00  0.00    +0.220 C 
ATOM      7  O   UNL     1      21.718  11.142  17.366  0.00  0.00    -0.275 OA
ATOM      8  H   UNL     1      24.452   7.460  22.909  0.00  0.00    +0.157 HD
ENDROOT
TORSDOF 0
ENDMDL
MODEL 8
REMARK VINA RESULT:      -3.5     18.123     18.681
REMARK  Name = 
REMARK  0 active torsions:
REMARK  status: ('A' for Active; 'I' for Inactive)
REMARK                            x       y       z     vdW  Elec       q    Type
REMARK                         _______ _______ _______ _____ _____    ______ ____
ROOT
ATOM      1  C   UNL     1      21.046  10.525  -0.465  0.00  0.00    +0.105 C 
ATOM      2  C   UNL     1      22.257   9.607  -0.466  0.00  0.00    +0.105 C 
ATOM      3  C   UNL     1      22.551   9.158  -1.889  0.00  0.00    +0.220 C 
ATOM      4  O   UNL     1      21.818   9.560  -2.847  0.00  0.00    -0.275 OA
ATOM      5  N   UNL     1      23.682   8.258  -2.157  0.00  0.00    -0.256 N 
ATOM      6  C   UNL     1      20.753  10.974   0.957  0.00  0.00    +0.220 C 
ATOM      7  O   UNL     1      19.775  11.753   1.189  0.00  0.00    -0.275 OA
ATOM      8  H   UNL     1      24.365   7.675  -2.562  0.00  0.00    +0.157 HD
ENDROOT
TORSDOF 0
ENDMDL
MODEL 9
REMARK VINA RESULT:      -3.4     19.460     20.074
REMARK  Name = 
REMARK  0 active torsions:
REMARK  status: ('A' for Active; 'I' for Inactive)
REMARK                            x       y       z     vdW  Elec       q    Type
REMARK                         _______ _______ _______ _____ _____    ______ ____
ROOT
ATOM      1  C   UNL     1      43.413  19.146  16.866  0.00  0.00    +0.105 C 
ATOM      2  C   UNL     1      43.115  17.794  17.492  0.00  0.00    +0.105 C 
ATOM      3  C   UNL     1      44.293  16.860  17.268  0.00  0.00    +0.220 C 
ATOM      4  O   UNL     1      45.316  17.269  16.634  0.00  0.00    -0.275 OA
ATOM      5  N   UNL     1      44.249  15.483  17.781  0.00  0.00    -0.256 N 
ATOM      6  C   UNL     1      42.236  20.079  17.092  0.00  0.00    +0.220 C 
ATOM      7  O   UNL     1      42.274  21.270  16.648  0.00  0.00    -0.275 OA
ATOM      8  H   UNL     1      44.435  14.548  18.027  0.00  0.00    +0.157 HD
ENDROOT
TORSDOF 0
ENDMDL
