MODEL 1
REMARK VINA RESULT:      -7.9      0.000      0.000
REMARK  Name = 
REMARK  6 active torsions:
REMARK  status: ('A' for Active; 'I' for Inactive)
REMARK    1  A    between atoms: C_3  and  O_22
REMARK    2  A    between atoms: C_4  and  O_21
REMARK    3  A    between atoms: C_6  and  C_7
REMARK    4  A    between atoms: C_8  and  O_20
REMARK    5  A    between atoms: C_12  and  O_19
REMARK    6  A    between atoms: C_14  and  O_18
REMARK                            x       y       z     vdW  Elec       q    Type
REMARK                         _______ _______ _______ _____ _____    ______ ____
ROOT
ATOM      1  C   UNL     1      21.045  10.505  17.030  0.00  0.00    +0.181 A 
ATOM      2  C   UNL     1      20.339   9.461  17.728  0.00  0.00    +0.208 A 
ATOM      3  C   UNL     1      20.940   8.826  18.872  0.00  0.00    +0.238 A 
ATOM      4  O   UNL     1      20.318   7.905  19.487  0.00  0.00    -0.283 OA
ATOM      5  C   UNL     1      22.246   9.236  19.320  0.00  0.00    +0.109 A 
ATOM      6  C   UNL     1      22.847   8.602  20.464  0.00  0.00    +0.135 A 
ATOM      7  C   UNL     1      22.142   7.557  21.162  0.00  0.00    +0.091 A 
ATOM      8  C   UNL     1      20.836   7.147  20.714  0.00  0.00    +0.124 A 
ATOM      9  C   UNL     1      20.235   7.782  19.569  0.00  0.00    +0.092 A 
ATOM     10  C   UNL     1      22.951  10.281  18.623  0.00  0.00    +0.147 A 
ATOM     11  O   UNL     1      20.483  11.097  15.960  0.00  0.00    -0.451 OA
ENDROOT
BRANCH   1  17
ATOM     12  C   UNL     1      23.111  12.010  16.830  0.00  0.00    +0.015 A 
ATOM     13  C   UNL     1      24.416  12.420  17.277  0.00  0.00    +0.050 A 
ATOM     14  C   UNL     1      25.104  13.492  16.605  0.00  0.00    +0.158 A 
ATOM     15  C   UNL     1      24.486  14.154  15.486  0.00  0.00    +0.159 A 
ATOM     16  C   UNL     1      25.173  15.226  14.814  0.00  0.00    +0.060 A 
ATOM     17  C   UNL     1      22.423  10.938  17.502  0.00  0.00    +0.025 A 
BRANCH  15  18
ATOM     18  O   UNL     1      23.198  13.750  15.044  0.00  0.00    -0.503 OA
ATOM     19  H   UNL     1      22.739  13.071  15.499  0.00  0.00    +0.292 HD
ENDBRANCH  15  18
BRANCH  14  20
ATOM     20  O   UNL     1      26.392  13.897  17.047  0.00  0.00    -0.503 OA
ATOM     21  H   UNL     1      27.128  13.829  16.470  0.00  0.00    +0.292 HD
ENDBRANCH  14  20
ENDBRANCH   1  17
BRANCH   8  22
ATOM     22  O   UNL     1      20.141   6.117  21.402  0.00  0.00    -0.507 OA
ATOM     23  H   UNL     1      20.108   6.119  22.338  0.00  0.00    +0.292 HD
ENDBRANCH   8  22
BRANCH   6  24
ATOM     24  O   UNL     1      24.135   9.007  20.906  0.00  0.00    -0.506 OA
ATOM     25  H   UNL     1      24.240   9.395  21.752  0.00  0.00    +0.292 HD
ENDBRANCH   6  24
BRANCH   2  26
ATOM     26  O   UNL     1      19.052   9.056  17.286  0.00  0.00    -0.501 OA
ATOM     27  H   UNL     1      18.960   8.307  16.731  0.00  0.00    +0.292 HD
ENDBRANCH   2  26
TORSDOF 6
ENDMDL
MODEL 2
REMARK VINA RESULT:      -7.9      1.698      6.775
REMARK  Name = 
REMARK  6 active torsions:
REMARK  status: ('A' for Active; 'I' for Inactive)
REMARK    1  A    between atoms: C_3  and  O_22
REMARK    2  A    between atoms: C_4  and  O_21
REMARK    3  A    between atoms: C_6  and  C_7
REMARK    4  A    between atoms: C_8  and  O_20
REMARK    5  A    between atoms: C_12  and  O_19
REMARK    6  A    between atoms: C_14  and  O_18
REMARK                            x       y       z     vdW  Elec       q    Type
REMARK                         _______ _______ _______ _____ _____    ______ ____
ROOT
ATOM      1  C   UNL     1      20.556  12.426  18.021  0.00  0.00    +0.181 A 
ATOM      2  C   UNL     1      20.742  13.243  16.849  0.00  0.00    +0.208 A 
ATOM      3  C   UNL     1      22.069  13.620  16.438  0.00  0.00    +0.238 A 
ATOM      4  O   UNL     1      22.233  14.341  15.404  0.00  0.00    -0.283 OA
ATOM      5  C   UNL     1      23.211  13.181  17.198  0.00  0.00    +0.109 A 
ATOM      6  C   UNL     1      24.538  13.559  16.787  0.00  0.00    +0.135 A 
ATOM      7  C   UNL     1      24.724  14.376  15.615  0.00  0.00    +0.091 A 
ATOM      8  C   UNL     1      23.583  14.815  14.855  0.00  0.00    +0.124 A 
ATOM      9  C   UNL     1      22.255  14.437  15.266  0.00  0.00    +0.092 A 
ATOM     10  C   UNL     1      23.025  12.365  18.369  0.00  0.00    +0.147 A 
ATOM     11  O   UNL     1      19.316  12.073  18.405  0.00  0.00    -0.451 OA
ENDROOT
BRANCH   1  17
ATOM     12  C   UNL     1      21.879  10.582  19.213  0.00  0.00    +0.015 A 
ATOM     13  C   UNL     1      23.020  10.143  19.973  0.00  0.00    +0.050 A 
ATOM     14  C   UNL     1      23.138   8.761  20.362  0.00  0.00    +0.158 A 
ATOM     15  C   UNL     1      22.114   7.818  19.991  0.00  0.00    +0.159 A 
ATOM     16  C   UNL     1      22.232   6.437  20.381  0.00  0.00    +0.060 A 
ATOM     17  C   UNL     1      21.761  11.963  18.824  0.00  0.00    +0.025 A 
BRANCH  15  18
ATOM     18  O   UNL     1      20.989   8.251  19.242  0.00  0.00    -0.503 OA
ATOM     19  H   UNL     1      20.227   7.709  19.186  0.00  0.00    +0.292 HD
ENDBRANCH  15  18
BRANCH  14  20
ATOM     20  O   UNL     1      24.264   8.328  21.112  0.00  0.00    -0.503 OA
ATOM     21  H   UNL     1      24.566   7.444  21.036  0.00  0.00    +0.292 HD
ENDBRANCH  14  20
ENDBRANCH   1  17
BRANCH   8  22
ATOM     22  O   UNL     1      23.766  15.620  13.700  0.00  0.00    -0.507 OA
ATOM     23  H   UNL     1      23.393  16.478  13.662  0.00  0.00    +0.292 HD
ENDBRANCH   8  22
BRANCH   6  24
ATOM     24  O   UNL     1      25.664  13.126  17.537  0.00  0.00    -0.506 OA
ATOM     25  H   UNL     1      26.384  12.711  17.104  0.00  0.00    +0.292 HD
ENDBRANCH   6  24
BRANCH   2  26
ATOM     26  O   UNL     1      19.616  13.675  16.099  0.00  0.00    -0.501 OA
ATOM     27  H   UNL     1      19.657  13.697  15.163  0.00  0.00    +0.292 HD
ENDBRANCH   2  26
TORSDOF 6
ENDMDL
MODEL 3
REMARK VINA RESULT:      -7.6      3.204      5.467
REMARK  Name = 
REMARK  6 active torsions:
REMARK  status: ('A' for Active; 'I' for Inactive)
REMARK    1  A    between atoms: C_3  and  O_22
REMARK    2  A    between atoms: C_4  and  O_21
REMARK    3  A    between atoms: C_6  and  C_7
REMARK    4  A    between atoms: C_8  and  O_20
REMARK    5  A    between atoms: C_12  and  O_19
REMARK    6  A    between atoms: C_14  and  O_18
REMARK                            x       y       z     vdW  Elec       q    Type
REMARK                         _______ _______ _______ _____ _____    ______ ____
ROOT
ATOM      1  C   UNL     1      19.847   7.978  20.825  0.00  0.00    +0.181 A 
ATOM      2  C   UNL     1      18.999   6.818  20.923  0.00  0.00    +0.208 A 
ATOM      3  C   UNL     1      17.681   6.838  20.343  0.00  0.00    +0.238 A 
ATOM      4  O   UNL     1      16.933   5.814  20.430  0.00  0.00    -0.283 OA
ATOM      5  C   UNL     1      17.211   8.019  19.665  0.00  0.00    +0.109 A 
ATOM      6  C   UNL     1      15.893   8.039  19.085  0.00  0.00    +0.135 A 
ATOM      7  C   UNL     1      15.044   6.879  19.184  0.00  0.00    +0.091 A 
ATOM      8  C   UNL     1      15.514   5.699  19.861  0.00  0.00    +0.124 A 
ATOM      9  C   UNL     1      16.833   5.678  20.441  0.00  0.00    +0.092 A 
ATOM     10  C   UNL     1      18.058   9.178  19.567  0.00  0.00    +0.147 A 
ATOM     11  O   UNL     1      21.078   7.959  21.367  0.00  0.00    -0.451 OA
ENDROOT
BRANCH   1  17
ATOM     12  C   UNL     1      20.292  10.204  19.633  0.00  0.00    +0.015 A 
ATOM     13  C   UNL     1      19.822  11.384  18.955  0.00  0.00    +0.050 A 
ATOM     14  C   UNL     1      20.764  12.364  18.478  0.00  0.00    +0.158 A 
ATOM     15  C   UNL     1      22.176  12.163  18.679  0.00  0.00    +0.159 A 
ATOM     16  C   UNL     1      23.117  13.143  18.203  0.00  0.00    +0.060 A 
ATOM     17  C   UNL     1      19.350   9.224  20.110  0.00  0.00    +0.025 A 
BRANCH  15  18
ATOM     18  O   UNL     1      22.639  10.999  19.348  0.00  0.00    -0.503 OA
ATOM     19  H   UNL     1      22.216  10.711  20.132  0.00  0.00    +0.292 HD
ENDBRANCH  15  18
BRANCH  14  20
ATOM     20  O   UNL     1      20.300  13.528  17.810  0.00  0.00    -0.503 OA
ATOM     21  H   UNL     1      20.796  13.891  17.102  0.00  0.00    +0.292 HD
ENDBRANCH  14  20
ENDBRANCH   1  17
BRANCH   8  22
ATOM     22  O   UNL     1      14.678   4.555  19.958  0.00  0.00    -0.507 OA
ATOM     23  H   UNL     1      14.695   3.904  19.284  0.00  0.00    +0.292 HD
ENDBRANCH   8  22
BRANCH   6  24
ATOM     24  O   UNL     1      15.429   9.203  18.417  0.00  0.00    -0.506 OA
ATOM     25  H   UNL     1      15.573  10.048  18.793  0.00  0.00    +0.292 HD
ENDBRANCH   6  24
BRANCH   2  26
ATOM     26  O   UNL     1      19.462   5.654  21.591  0.00  0.00    -0.501 OA
ATOM     27  H   UNL     1      18.848   5.038  21.941  0.00  0.00    +0.292 HD
ENDBRANCH   2  26
TORSDOF 6
ENDMDL
MODEL 4
REMARK VINA RESULT:      -7.6      3.125      7.962
REMARK  Name = 
REMARK  6 active torsions:
REMARK  status: ('A' for Active; 'I' for Inactive)
REMARK    1  A    between atoms: C_3  and  O_22
REMARK    2  A    between atoms: C_4  and  O_21
REMARK    3  A    between atoms: C_6  and  C_7
REMARK    4  A    between atoms: C_8  and  O_20
REMARK    5  A    between atoms: C_12  and  O_19
REMARK    6  A    between atoms: C_14  and  O_18
REMARK                            x       y       z     vdW  Elec       q    Type
REMARK                         _______ _______ _______ _____ _____    ______ ____
ROOT
ATOM      1  C   UNL     1      20.860  10.655  16.987  0.00  0.00    +0.181 A 
ATOM      2  C   UNL     1      21.496  11.884  16.587  0.00  0.00    +0.208 A 
ATOM      3  C   UNL     1      20.771  13.126  16.661  0.00  0.00    +0.238 A 
ATOM      4  O   UNL     1      21.332  14.211  16.307  0.00  0.00    -0.283 OA
ATOM      5  C   UNL     1      19.411  13.140  17.135  0.00  0.00    +0.109 A 
ATOM      6  C   UNL     1      18.687  14.382  17.209  0.00  0.00    +0.135 A 
ATOM      7  C   UNL     1      19.321  15.611  16.807  0.00  0.00    +0.091 A 
ATOM      8  C   UNL     1      20.681  15.598  16.333  0.00  0.00    +0.124 A 
ATOM      9  C   UNL     1      21.406  14.355  16.260  0.00  0.00    +0.092 A 
ATOM     10  C   UNL     1      18.776  11.911  17.535  0.00  0.00    +0.147 A 
ATOM     11  O   UNL     1      21.538   9.494  16.918  0.00  0.00    -0.451 OA
ENDROOT
BRANCH   1  17
ATOM     12  C   UNL     1      18.893   9.523  18.178  0.00  0.00    +0.015 A 
ATOM     13  C   UNL     1      17.533   9.537  18.653  0.00  0.00    +0.050 A 
ATOM     14  C   UNL     1      17.001   8.391  19.345  0.00  0.00    +0.158 A 
ATOM     15  C   UNL     1      17.827   7.232  19.561  0.00  0.00    +0.159 A 
ATOM     16  C   UNL     1      17.295   6.086  20.252  0.00  0.00    +0.060 A 
ATOM     17  C   UNL     1      19.425  10.669  17.487  0.00  0.00    +0.025 A 
BRANCH  15  18
ATOM     18  O   UNL     1      19.168   7.219  19.094  0.00  0.00    -0.503 OA
ATOM     19  H   UNL     1      19.343   7.148  18.176  0.00  0.00    +0.292 HD
ENDBRANCH  15  18
BRANCH  14  20
ATOM     20  O   UNL     1      15.660   8.404  19.812  0.00  0.00    -0.503 OA
ATOM     21  H   UNL     1      15.476   8.629  20.704  0.00  0.00    +0.292 HD
ENDBRANCH  14  20
ENDBRANCH   1  17
BRANCH   8  22
ATOM     22  O   UNL     1      21.307  16.810  15.939  0.00  0.00    -0.507 OA
ATOM     23  H   UNL     1      22.087  17.096  16.370  0.00  0.00    +0.292 HD
ENDBRANCH   8  22
BRANCH   6  24
ATOM     24  O   UNL     1      17.346  14.395  17.676  0.00  0.00    -0.506 OA
ATOM     25  H   UNL     1      16.947  13.603  17.977  0.00  0.00    +0.292 HD
ENDBRANCH   6  24
BRANCH   2  26
ATOM     26  O   UNL     1      22.836  11.871  16.119  0.00  0.00    -0.501 OA
ATOM     27  H   UNL     1      23.534  12.136  16.686  0.00  0.00    +0.292 HD
ENDBRANCH   2  26
TORSDOF 6
ENDMDL
MODEL 5
REMARK VINA RESULT:      -7.4      2.304      7.178
REMARK  Name = 
REMARK  6 active torsions:
REMARK  status: ('A' for Active; 'I' for Inactive)
REMARK    1  A    between atoms: C_3  and  O_22
REMARK    2  A    between atoms: C_4  and  O_21
REMARK    3  A    between atoms: C_6  and  C_7
REMARK    4  A    between atoms: C_8  and  O_20
REMARK    5  A    between atoms: C_12  and  O_19
REMARK    6  A    between atoms: C_14  and  O_18
REMARK                            x       y       z     vdW  Elec       q    Type
REMARK                         _______ _______ _______ _____ _____    ______ ____
ROOT
ATOM      1  C   UNL     1      24.861  13.294  16.670  0.00  0.00    +0.181 A 
ATOM      2  C   UNL     1      24.318  14.086  15.596  0.00  0.00    +0.208 A 
ATOM      3  C   UNL     1      22.927  14.456  15.605  0.00  0.00    +0.238 A 
ATOM      4  O   UNL     1      22.449  15.154  14.657  0.00  0.00    -0.283 OA
ATOM      5  C   UNL     1      22.077  14.035  16.689  0.00  0.00    +0.109 A 
ATOM      6  C   UNL     1      20.686  14.406  16.699  0.00  0.00    +0.135 A 
ATOM      7  C   UNL     1      20.143  15.196  15.624  0.00  0.00    +0.091 A 
ATOM      8  C   UNL     1      20.993  15.617  14.540  0.00  0.00    +0.124 A 
ATOM      9  C   UNL     1      22.385  15.247  14.531  0.00  0.00    +0.092 A 
ATOM     10  C   UNL     1      22.619  13.244  17.764  0.00  0.00    +0.147 A 
ATOM     11  O   UNL     1      26.161  12.948  16.660  0.00  0.00    -0.451 OA
ENDROOT
BRANCH   1  17
ATOM     12  C   UNL     1      23.070  11.735  17.637  0.00  0.00    +0.015 A 
ATOM     13  C   UNL     1      22.220  11.314  18.721  0.00  0.00    +0.050 A 
ATOM     14  C   UNL     1      21.326  10.199  18.544  0.00  0.00    +0.158 A 
ATOM     15  C   UNL     1      21.281   9.504  17.283  0.00  0.00    +0.159 A 
ATOM     16  C   UNL     1      20.387   8.390  17.106  0.00  0.00    +0.060 A 
ATOM     17  C   UNL     1      23.964  12.850  17.814  0.00  0.00    +0.025 A 
BRANCH  15  18
ATOM     18  O   UNL     1      22.119   9.919  16.214  0.00  0.00    -0.503 OA
ATOM     19  H   UNL     1      22.985   9.570  16.135  0.00  0.00    +0.292 HD
ENDBRANCH  15  18
BRANCH  14  20
ATOM     20  O   UNL     1      20.489   9.784  19.613  0.00  0.00    -0.503 OA
ATOM     21  H   UNL     1      20.818   9.198  20.267  0.00  0.00    +0.292 HD
ENDBRANCH  14  20
ENDBRANCH   1  17
BRANCH   8  22
ATOM     22  O   UNL     1      20.458  16.398  13.481  0.00  0.00    -0.507 OA
ATOM     23  H   UNL     1      20.145  17.264  13.649  0.00  0.00    +0.292 HD
ENDBRANCH   8  22
BRANCH   6  24
ATOM     24  O   UNL     1      19.848  13.991  17.768  0.00  0.00    -0.506 OA
ATOM     25  H   UNL     1      19.782  13.082  17.987  0.00  0.00    +0.292 HD
ENDBRANCH   6  24
BRANCH   2  26
ATOM     26  O   UNL     1      25.156  14.500  14.527  0.00  0.00    -0.501 OA
ATOM     27  H   UNL     1      26.080  14.351  14.570  0.00  0.00    +0.292 HD
ENDBRANCH   2  26
TORSDOF 6
ENDMDL
MODEL 6
REMARK VINA RESULT:      -7.4      2.905      8.283
REMARK  Name = 
REMARK  6 active torsions:
REMARK  status: ('A' for Active; 'I' for Inactive)
REMARK    1  A    between atoms: C_3  and  O_22
REMARK    2  A    between atoms: C_4  and  O_21
REMARK    3  A    between atoms: C_6  and  C_7
REMARK    4  A    between atoms: C_8  and  O_20
REMARK    5  A    between atoms: C_12  and  O_19
REMARK    6  A    between atoms: C_14  and  O_18
REMARK                            x       y       z     vdW  Elec       q    Type
REMARK                         _______ _______ _______ _____ _____    ______ ____
ROOT
ATOM      1  C   UNL     1      20.571   7.651  21.221  0.00  0.00    +0.181 A 
ATOM      2  C   UNL     1      21.634   8.581  20.939  0.00  0.00    +0.208 A 
ATOM      3  C   UNL     1      21.605   9.364  19.730  0.00  0.00    +0.238 A 
ATOM      4  O   UNL     1      22.544  10.184  19.482  0.00  0.00    -0.283 OA
ATOM      5  C   UNL     1      20.513   9.217  18.803  0.00  0.00    +0.109 A 
ATOM      6  C   UNL     1      20.484   9.999  17.595  0.00  0.00    +0.135 A 
ATOM      7  C   UNL     1      21.548  10.928  17.312  0.00  0.00    +0.091 A 
ATOM      8  C   UNL     1      22.640  11.075  18.239  0.00  0.00    +0.124 A 
ATOM      9  C   UNL     1      22.669  10.293  19.448  0.00  0.00    +0.092 A 
ATOM     10  C   UNL     1      19.450   8.287  19.085  0.00  0.00    +0.147 A 
ATOM     11  O   UNL     1      20.599   6.920  22.350  0.00  0.00    -0.451 OA
ENDROOT
BRANCH   1  17
ATOM     12  C   UNL     1      18.278   6.690  20.595  0.00  0.00    +0.015 A 
ATOM     13  C   UNL     1      17.186   6.543  19.668  0.00  0.00    +0.050 A 
ATOM     14  C   UNL     1      16.045   5.738  20.022  0.00  0.00    +0.158 A 
ATOM     15  C   UNL     1      15.997   5.080  21.302  0.00  0.00    +0.159 A 
ATOM     16  C   UNL     1      14.857   4.274  21.655  0.00  0.00    +0.060 A 
ATOM     17  C   UNL     1      19.418   7.496  20.242  0.00  0.00    +0.025 A 
BRANCH  15  18
ATOM     18  O   UNL     1      17.074   5.225  22.216  0.00  0.00    -0.503 OA
ATOM     19  H   UNL     1      16.911   5.526  23.088  0.00  0.00    +0.292 HD
ENDBRANCH  15  18
BRANCH  14  20
ATOM     20  O   UNL     1      14.968   5.593  19.108  0.00  0.00    -0.503 OA
ATOM     21  H   UNL     1      15.087   5.812  18.205  0.00  0.00    +0.292 HD
ENDBRANCH  14  20
ENDBRANCH   1  17
BRANCH   8  22
ATOM     22  O   UNL     1      23.688  11.992  17.961  0.00  0.00    -0.507 OA
ATOM     23  H   UNL     1      23.604  12.890  18.213  0.00  0.00    +0.292 HD
ENDBRANCH   8  22
BRANCH   6  24
ATOM     24  O   UNL     1      19.407   9.854  16.681  0.00  0.00    -0.506 OA
ATOM     25  H   UNL     1      19.417  10.316  15.866  0.00  0.00    +0.292 HD
ENDBRANCH   6  24
BRANCH   2  26
ATOM     26  O   UNL     1      22.712   8.726  21.853  0.00  0.00    -0.501 OA
ATOM     27  H   UNL     1      23.281   9.468  21.792  0.00  0.00    +0.292 HD
ENDBRANCH   2  26
TORSDOF 6
ENDMDL
MODEL 7
REMARK VINA RESULT:      -7.4      3.098      3.938
REMARK  Name = 
REMARK  6 active torsions:
REMARK  status: ('A' for Active; 'I' for Inactive)
REMARK    1  A    between atoms: C_3  and  O_22
REMARK    2  A    between atoms: C_4  and  O_21
REMARK    3  A    between atoms: C_6  and  C_7
REMARK    4  A    between atoms: C_8  and  O_20
REMARK    5  A    between atoms: C_12  and  O_19
REMARK    6  A    between atoms: C_14  and  O_18
REMARK                            x       y       z     vdW  Elec       q    Type
REMARK                         _______ _______ _______ _____ _____    ______ ____
ROOT
ATOM      1  C   UNL     1      17.794   9.265  18.788  0.00  0.00    +0.181 A 
ATOM      2  C   UNL     1      18.795   8.285  19.122  0.00  0.00    +0.208 A 
ATOM      3  C   UNL     1      20.106   8.708  19.543  0.00  0.00    +0.238 A 
ATOM      4  O   UNL     1      20.989   7.843  19.837  0.00  0.00    -0.283 OA
ATOM      5  C   UNL     1      20.416  10.112  19.630  0.00  0.00    +0.109 A 
ATOM      6  C   UNL     1      21.726  10.535  20.050  0.00  0.00    +0.135 A 
ATOM      7  C   UNL     1      22.728   9.555  20.383  0.00  0.00    +0.091 A 
ATOM      8  C   UNL     1      22.418   8.151  20.296  0.00  0.00    +0.124 A 
ATOM      9  C   UNL     1      21.107   7.728  19.876  0.00  0.00    +0.092 A 
ATOM     10  C   UNL     1      19.415  11.092  19.296  0.00  0.00    +0.147 A 
ATOM     11  O   UNL     1      16.570   8.869  18.396  0.00  0.00    -0.451 OA
ENDROOT
BRANCH   1  17
ATOM     12  C   UNL     1      18.611  11.449  17.722  0.00  0.00    +0.015 A 
ATOM     13  C   UNL     1      18.921  12.853  17.809  0.00  0.00    +0.050 A 
ATOM     14  C   UNL     1      19.410  13.555  16.650  0.00  0.00    +0.158 A 
ATOM     15  C   UNL     1      19.590  12.854  15.406  0.00  0.00    +0.159 A 
ATOM     16  C   UNL     1      20.080  13.556  14.248  0.00  0.00    +0.060 A 
ATOM     17  C   UNL     1      18.121  10.747  18.880  0.00  0.00    +0.025 A 
BRANCH  15  18
ATOM     18  O   UNL     1      19.285  11.470  15.320  0.00  0.00    -0.503 OA
ATOM     19  H   UNL     1      19.854  10.893  14.850  0.00  0.00    +0.292 HD
ENDBRANCH  15  18
BRANCH  14  20
ATOM     20  O   UNL     1      19.716  14.939  16.736  0.00  0.00    -0.503 OA
ATOM     21  H   UNL     1      19.079  15.540  17.071  0.00  0.00    +0.292 HD
ENDBRANCH  14  20
ENDBRANCH   1  17
BRANCH   8  22
ATOM     22  O   UNL     1      23.405   7.185  20.626  0.00  0.00    -0.507 OA
ATOM     23  H   UNL     1      23.247   6.278  20.457  0.00  0.00    +0.292 HD
ENDBRANCH   8  22
BRANCH   6  24
ATOM     24  O   UNL     1      22.032  11.919  20.136  0.00  0.00    -0.506 OA
ATOM     25  H   UNL     1      22.744  12.210  20.670  0.00  0.00    +0.292 HD
ENDBRANCH   6  24
BRANCH   2  26
ATOM     26  O   UNL     1      18.490   6.901  19.037  0.00  0.00    -0.501 OA
ATOM     27  H   UNL     1      18.552   6.457  18.213  0.00  0.00    +0.292 HD
ENDBRANCH   2  26
TORSDOF 6
ENDMDL
MODEL 8
REMARK VINA RESULT:      -7.3      3.207      4.966
REMARK  Name = 
REMARK  6 active torsions:
REMARK  status: ('A' for Active; 'I' for Inactive)
REMARK    1  A    between atoms: C_3  and  O_22
REMARK    2  A    between atoms: C_4  and  O_21
REMARK    3  A    between atoms: C_6  and  C_7
REMARK    4  A    between atoms: C_8  and  O_20
REMARK    5  A    between atoms: C_12  and  O_19
REMARK    6  A    between atoms: C_14  and  O_18
REMARK                            x       y       z     vdW  Elec       q    Type
REMARK                         _______ _______ _______ _____ _____    ______ ____
ROOT
ATOM      1  C   UNL     1      16.164   8.564  19.191  0.00  0.00    +0.181 A 
ATOM      2  C   UNL     1      16.229   7.134  19.356  0.00  0.00    +0.208 A 
ATOM      3  C   UNL     1      17.319   6.542  20.086  0.00  0.00    +0.238 A 
ATOM      4  O   UNL     1      17.376   5.280  20.230  0.00  0.00    -0.283 OA
ATOM      5  C   UNL     1      18.345   7.378  20.652  0.00  0.00    +0.109 A 
ATOM      6  C   UNL     1      19.436   6.786  21.383  0.00  0.00    +0.135 A 
ATOM      7  C   UNL     1      19.501   5.356  21.546  0.00  0.00    +0.091 A 
ATOM      8  C   UNL     1      18.475   4.520  20.980  0.00  0.00    +0.124 A 
ATOM      9  C   UNL     1      17.384   5.113  20.250  0.00  0.00    +0.092 A 
ATOM     10  C   UNL     1      18.281   8.808  20.489  0.00  0.00    +0.147 A 
ATOM     11  O   UNL     1      15.145   9.117  18.509  0.00  0.00    -0.451 OA
ENDROOT
BRANCH   1  17
ATOM     12  C   UNL     1      18.274  10.000  18.944  0.00  0.00    +0.015 A 
ATOM     13  C   UNL     1      19.300  10.836  19.510  0.00  0.00    +0.050 A 
ATOM     14  C   UNL     1      20.326  11.390  18.664  0.00  0.00    +0.158 A 
ATOM     15  C   UNL     1      20.327  11.106  17.253  0.00  0.00    +0.159 A 
ATOM     16  C   UNL     1      21.354  11.658  16.408  0.00  0.00    +0.060 A 
ATOM     17  C   UNL     1      17.247   9.447  19.789  0.00  0.00    +0.025 A 
BRANCH  15  18
ATOM     18  O   UNL     1      19.315  10.280  16.694  0.00  0.00    -0.503 OA
ATOM     19  H   UNL     1      19.551   9.510  16.215  0.00  0.00    +0.292 HD
ENDBRANCH  15  18
BRANCH  14  20
ATOM     20  O   UNL     1      21.338  12.215  19.223  0.00  0.00    -0.503 OA
ATOM     21  H   UNL     1      21.346  12.388  20.144  0.00  0.00    +0.292 HD
ENDBRANCH  14  20
ENDBRANCH   1  17
BRANCH   8  22
ATOM     22  O   UNL     1      18.539   3.110  21.142  0.00  0.00    -0.507 OA
ATOM     23  H   UNL     1      18.269   2.719  21.948  0.00  0.00    +0.292 HD
ENDBRANCH   8  22
BRANCH   6  24
ATOM     24  O   UNL     1      20.447   7.611  21.941  0.00  0.00    -0.506 OA
ATOM     25  H   UNL     1      20.502   7.723  22.870  0.00  0.00    +0.292 HD
ENDBRANCH   6  24
BRANCH   2  26
ATOM     26  O   UNL     1      15.217   6.309  18.797  0.00  0.00    -0.501 OA
ATOM     27  H   UNL     1      14.540   6.688  18.271  0.00  0.00    +0.292 HD
ENDBRANCH   2  26
TORSDOF 6
ENDMDL
MODEL 9
REMARK VINA RESULT:      -7.1      5.571     10.786
REMARK  Name = 
REMARK  6 active torsions:
REMARK  status: ('A' for Active; 'I' for Inactive)
REMARK    1  A    between atoms: C_3  and  O_22
REMARK    2  A    between atoms: C_4  and  O_21
REMARK    3  A    between atoms: C_6  and  C_7
REMARK    4  A    between atoms: C_8  and  O_20
REMARK    5  A    between atoms: C_12  and  O_19
REMARK    6  A    between atoms: C_14  and  O_18
REMARK                            x       y       z     vdW  Elec       q    Type
REMARK                         _______ _______ _______ _____ _____    ______ ____
ROOT
ATOM      1  C   UNL     1      18.179   4.732  21.529  0.00  0.00    +0.181 A 
ATOM      2  C   UNL     1      18.779   5.892  20.921  0.00  0.00    +0.208 A 
ATOM      3  C   UNL     1      17.985   6.764  20.095  0.00  0.00    +0.238 A 
ATOM      4  O   UNL     1      18.515   7.787  19.558  0.00  0.00    -0.283 OA
ATOM      5  C   UNL     1      16.591   6.477  19.878  0.00  0.00    +0.109 A 
ATOM      6  C   UNL     1      15.796   7.350  19.053  0.00  0.00    +0.135 A 
ATOM      7  C   UNL     1      16.396   8.509  18.443  0.00  0.00    +0.091 A 
ATOM      8  C   UNL     1      17.791   8.796  18.661  0.00  0.00    +0.124 A 
ATOM      9  C   UNL     1      18.585   7.923  19.487  0.00  0.00    +0.092 A 
ATOM     10  C   UNL     1      15.991   5.318  20.486  0.00  0.00    +0.147 A 
ATOM     11  O   UNL     1      18.922   3.917  22.300  0.00  0.00    -0.451 OA
ENDROOT
BRANCH   1  17
ATOM     12  C   UNL     1      15.811   4.323  22.421  0.00  0.00    +0.015 A 
ATOM     13  C   UNL     1      14.417   4.036  22.204  0.00  0.00    +0.050 A 
ATOM     14  C   UNL     1      13.520   3.931  23.327  0.00  0.00    +0.158 A 
ATOM     15  C   UNL     1      14.018   4.111  24.666  0.00  0.00    +0.159 A 
ATOM     16  C   UNL     1      13.121   4.005  25.787  0.00  0.00    +0.060 A 
ATOM     17  C   UNL     1      16.708   4.429  21.299  0.00  0.00    +0.025 A 
BRANCH  15  18
ATOM     18  O   UNL     1      15.393   4.394  24.880  0.00  0.00    -0.503 OA
ATOM     19  H   UNL     1      15.934   4.656  24.162  0.00  0.00    +0.292 HD
ENDBRANCH  15  18
BRANCH  14  20
ATOM     20  O   UNL     1      12.145   3.648  23.112  0.00  0.00    -0.503 OA
ATOM     21  H   UNL     1      11.788   3.684  22.246  0.00  0.00    +0.292 HD
ENDBRANCH  14  20
ENDBRANCH   1  17
BRANCH   8  22
ATOM     22  O   UNL     1      18.382   9.939  18.061  0.00  0.00    -0.507 OA
ATOM     23  H   UNL     1      17.853  10.680  17.842  0.00  0.00    +0.292 HD
ENDBRANCH   8  22
BRANCH   6  24
ATOM     24  O   UNL     1      14.421   7.067  18.838  0.00  0.00    -0.506 OA
ATOM     25  H   UNL     1      13.882   6.792  19.553  0.00  0.00    +0.292 HD
ENDBRANCH   6  24
BRANCH   2  26
ATOM     26  O   UNL     1      20.154   6.174  21.135  0.00  0.00    -0.501 OA
ATOM     27  H   UNL     1      20.577   6.848  20.639  0.00  0.00    +0.292 HD
ENDBRANCH   2  26
TORSDOF 6
ENDMDL
