MODEL 1
REMARK VINA RESULT:      -7.2      0.000      0.000
REMARK  Name = 
REMARK  15 active torsions:
REMARK  status: ('A' for Active; 'I' for Inactive)
REMARK    1  A    between atoms: C_1  and  O_2
REMARK    2  A    between atoms: O_2  and  C_3
REMARK    3  A    between atoms: C_4  and  O_32
REMARK    4  A    between atoms: C_7  and  C_9
REMARK    5  A    between atoms: C_10  and  C_11
REMARK    6  A    between atoms: N_13  and  C_14
REMARK    7  A    between atoms: C_14  and  C_15
REMARK    8  A    between atoms: C_15  and  C_16
REMARK    9  A    between atoms: C_16  and  C_17
REMARK   10  A    between atoms: C_17  and  N_18
REMARK   11  A    between atoms: C_19  and  C_21
REMARK   12  A    between atoms: C_22  and  C_23
REMARK   13  A    between atoms: C_25  and  O_30
REMARK   14  A    between atoms: C_26  and  O_29
REMARK   15  A    between atoms: O_30  and  C_31
REMARK                            x       y       z     vdW  Elec       q    Type
REMARK                         _______ _______ _______ _____ _____    ______ ____
ROOT
ATOM      1  C   UNL     1      22.537  11.302  19.001  0.00  0.00    +0.020 C 
ENDROOT
BRANCH   1   2
ATOM      2  C   UNL     1      22.546  10.113  19.948  0.00  0.00    +0.104 C 
BRANCH   2   5
ATOM      3  C   UNL     1      20.003  10.013  20.033  0.00  0.00    +0.237 C 
ATOM      4  O   UNL     1      19.966  11.238  20.373  0.00  0.00    -0.271 OA
ATOM      5  N   UNL     1      21.295   9.355  19.794  0.00  0.00    -0.312 N 
ATOM      6  H   UNL     1      21.323   8.406  19.531  0.00  0.00    +0.149 HD
BRANCH   3   8
ATOM      7  C   UNL     1      17.727   9.697  19.059  0.00  0.00    +0.013 C 
ATOM      8  C   UNL     1      18.710   9.230  19.875  0.00  0.00    +0.068 C 
BRANCH   7  13
ATOM      9  C   UNL     1      15.709   5.427  21.347  0.00  0.00    +0.162 A 
ATOM     10  C   UNL     1      14.726   5.846  20.381  0.00  0.00    +0.158 A 
ATOM     11  C   UNL     1      14.968   7.008  19.566  0.00  0.00    +0.050 A 
ATOM     12  C   UNL     1      16.193   7.751  19.716  0.00  0.00    +0.012 A 
ATOM     13  C   UNL     1      16.435   8.913  18.900  0.00  0.00    -0.021 A 
ATOM     14  C   UNL     1      15.466   4.265  22.163  0.00  0.00    +0.057 A 
BRANCH   9  16
ATOM     15  C   UNL     1      18.127   5.479  21.790  0.00  0.00    +0.277 C 
ATOM     16  O   UNL     1      16.916   6.159  21.495  0.00  0.00    -0.491 OA
ENDBRANCH   9  16
BRANCH  10  17
ATOM     17  O   UNL     1      13.519   5.112  20.233  0.00  0.00    -0.503 OA
ATOM     18  H   UNL     1      13.146   4.669  20.969  0.00  0.00    +0.292 HD
ENDBRANCH  10  17
ENDBRANCH   7  13
ENDBRANCH   3   8
ENDBRANCH   2   5
ENDBRANCH   1   2
BRANCH   1  19
ATOM     19  C   UNL     1      23.255  10.930  17.714  0.00  0.00    +0.020 C 
BRANCH  19  20
ATOM     20  C   UNL     1      22.241  10.799  16.589  0.00  0.00    +0.104 C 
BRANCH  20  21
ATOM     21  N   UNL     1      21.765  12.134  16.200  0.00  0.00    -0.312 N 
ATOM     22  C   UNL     1      20.343  12.478  16.343  0.00  0.00    +0.237 C 
ATOM     23  O   UNL     1      19.525  11.621  16.804  0.00  0.00    -0.271 OA
ATOM     24  H   UNL     1      22.399  12.798  15.843  0.00  0.00    +0.149 HD
BRANCH  22  25
ATOM     25  C   UNL     1      19.851  13.859  15.942  0.00  0.00    +0.068 C 
ATOM     26  C   UNL     1      20.679  14.932  16.044  0.00  0.00    +0.013 C 
BRANCH  26  27
ATOM     27  C   UNL     1      20.186  16.314  15.644  0.00  0.00    -0.021 A 
ATOM     28  C   UNL     1      19.977  17.322  16.650  0.00  0.00    +0.057 A 
ATOM     29  C   UNL     1      19.510  18.632  16.271  0.00  0.00    +0.162 A 
ATOM     30  C   UNL     1      19.254  18.932  14.886  0.00  0.00    +0.158 A 
ATOM     31  C   UNL     1      18.789  20.241  14.507  0.00  0.00    +0.050 A 
ATOM     32  C   UNL     1      19.931  16.614  14.259  0.00  0.00    +0.012 A 
BRANCH  30  33
ATOM     33  O   UNL     1      19.462  17.936  13.894  0.00  0.00    -0.503 OA
ATOM     34  H   UNL     1      20.318  17.799  13.539  0.00  0.00    +0.292 HD
ENDBRANCH  30  33
BRANCH  29  35
ATOM     35  O   UNL     1      19.304  19.627  17.262  0.00  0.00    -0.491 OA
ATOM     36  C   UNL     1      20.410  20.153  17.981  0.00  0.00    +0.277 C 
ENDBRANCH  29  35
ENDBRANCH  26  27
ENDBRANCH  22  25
ENDBRANCH  20  21
ENDBRANCH  19  20
ENDBRANCH   1  19
TORSDOF 13
ENDMDL
MODEL 2
REMARK VINA RESULT:      -7.1      3.547      5.607
REMARK  Name = 
REMARK  15 active torsions:
REMARK  status: ('A' for Active; 'I' for Inactive)
REMARK    1  A    between atoms: C_1  and  O_2
REMARK    2  A    between atoms: O_2  and  C_3
REMARK    3  A    between atoms: C_4  and  O_32
REMARK    4  A    between atoms: C_7  and  C_9
REMARK    5  A    between atoms: C_10  and  C_11
REMARK    6  A    between atoms: N_13  and  C_14
REMARK    7  A    between atoms: C_14  and  C_15
REMARK    8  A    between atoms: C_15  and  C_16
REMARK    9  A    between atoms: C_16  and  C_17
REMARK   10  A    between atoms: C_17  and  N_18
REMARK   11  A    between atoms: C_19  and  C_21
REMARK   12  A    between atoms: C_22  and  C_23
REMARK   13  A    between atoms: C_25  and  O_30
REMARK   14  A    between atoms: C_26  and  O_29
REMARK   15  A    between atoms: O_30  and  C_31
REMARK                            x       y       z     vdW  Elec       q    Type
REMARK                         _______ _______ _______ _____ _____    ______ ____
ROOT
ATOM      1  C   UNL     1      20.875   6.201  21.042  0.00  0.00    +0.020 C 
ENDROOT
BRANCH   1   2
ATOM      2  C   UNL     1      19.773   7.231  20.862  0.00  0.00    +0.104 C 
BRANCH   2   5
ATOM      3  C   UNL     1      17.230   7.234  20.995  0.00  0.00    +0.237 C 
ATOM      4  O   UNL     1      17.183   8.110  20.074  0.00  0.00    -0.271 OA
ATOM      5  N   UNL     1      18.528   6.726  21.460  0.00  0.00    -0.312 N 
ATOM      6  H   UNL     1      18.564   6.047  22.173  0.00  0.00    +0.149 HD
BRANCH   3   8
ATOM      7  C   UNL     1      15.825   5.395  21.928  0.00  0.00    +0.013 C 
ATOM      8  C   UNL     1      15.943   6.713  21.614  0.00  0.00    +0.068 C 
BRANCH   7  13
ATOM      9  C   UNL     1      14.372   4.014  26.778  0.00  0.00    +0.162 A 
ATOM     10  C   UNL     1      13.209   3.807  25.956  0.00  0.00    +0.158 A 
ATOM     11  C   UNL     1      13.264   4.093  24.545  0.00  0.00    +0.050 A 
ATOM     12  C   UNL     1      14.483   4.587  23.958  0.00  0.00    +0.012 A 
ATOM     13  C   UNL     1      14.538   4.874  22.547  0.00  0.00    -0.021 A 
ATOM     14  C   UNL     1      14.317   3.728  28.189  0.00  0.00    +0.057 A 
BRANCH   9  16
ATOM     15  C   UNL     1      16.621   4.977  27.032  0.00  0.00    +0.277 C 
ATOM     16  O   UNL     1      15.574   4.501  26.199  0.00  0.00    -0.491 OA
ENDBRANCH   9  16
BRANCH  10  17
ATOM     17  O   UNL     1      12.007   3.319  26.534  0.00  0.00    -0.503 OA
ATOM     18  H   UNL     1      11.220   3.824  26.476  0.00  0.00    +0.292 HD
ENDBRANCH  10  17
ENDBRANCH   7  13
ENDBRANCH   3   8
ENDBRANCH   2   5
ENDBRANCH   1   2
BRANCH   1  19
ATOM     19  C   UNL     1      22.219   6.836  20.723  0.00  0.00    +0.020 C 
BRANCH  19  20
ATOM     20  C   UNL     1      22.293   8.213  21.362  0.00  0.00    +0.104 C 
BRANCH  20  21
ATOM     21  N   UNL     1      22.898   9.161  20.416  0.00  0.00    -0.312 N 
ATOM     22  C   UNL     1      22.067  10.188  19.771  0.00  0.00    +0.237 C 
ATOM     23  O   UNL     1      20.826  10.257  20.032  0.00  0.00    -0.271 OA
ATOM     24  H   UNL     1      23.861   9.107  20.213  0.00  0.00    +0.149 HD
BRANCH  22  25
ATOM     25  C   UNL     1      22.693  11.168  18.792  0.00  0.00    +0.068 C 
ATOM     26  C   UNL     1      21.950  12.184  18.277  0.00  0.00    +0.013 C 
BRANCH  26  27
ATOM     27  C   UNL     1      22.575  13.163  17.297  0.00  0.00    -0.021 A 
ATOM     28  C   UNL     1      23.935  12.977  16.862  0.00  0.00    +0.057 A 
ATOM     29  C   UNL     1      24.528  13.904  15.933  0.00  0.00    +0.162 A 
ATOM     30  C   UNL     1      23.760  15.018  15.439  0.00  0.00    +0.158 A 
ATOM     31  C   UNL     1      24.352  15.945  14.510  0.00  0.00    +0.050 A 
ATOM     32  C   UNL     1      21.807  14.276  16.803  0.00  0.00    +0.012 A 
BRANCH  30  33
ATOM     33  O   UNL     1      22.418  15.201  15.868  0.00  0.00    -0.503 OA
ATOM     34  H   UNL     1      21.726  15.237  15.238  0.00  0.00    +0.292 HD
ENDBRANCH  30  33
BRANCH  29  35
ATOM     35  O   UNL     1      25.869  13.721  15.504  0.00  0.00    -0.491 OA
ATOM     36  C   UNL     1      26.900  13.526  16.461  0.00  0.00    +0.277 C 
ENDBRANCH  29  35
ENDBRANCH  26  27
ENDBRANCH  22  25
ENDBRANCH  20  21
ENDBRANCH  19  20
ENDBRANCH   1  19
TORSDOF 13
ENDMDL
MODEL 3
REMARK VINA RESULT:      -7.0      2.922     12.409
REMARK  Name = 
REMARK  15 active torsions:
REMARK  status: ('A' for Active; 'I' for Inactive)
REMARK    1  A    between atoms: C_1  and  O_2
REMARK    2  A    between atoms: O_2  and  C_3
REMARK    3  A    between atoms: C_4  and  O_32
REMARK    4  A    between atoms: C_7  and  C_9
REMARK    5  A    between atoms: C_10  and  C_11
REMARK    6  A    between atoms: N_13  and  C_14
REMARK    7  A    between atoms: C_14  and  C_15
REMARK    8  A    between atoms: C_15  and  C_16
REMARK    9  A    between atoms: C_16  and  C_17
REMARK   10  A    between atoms: C_17  and  N_18
REMARK   11  A    between atoms: C_19  and  C_21
REMARK   12  A    between atoms: C_22  and  C_23
REMARK   13  A    between atoms: C_25  and  O_30
REMARK   14  A    between atoms: C_26  and  O_29
REMARK   15  A    between atoms: O_30  and  C_31
REMARK                            x       y       z     vdW  Elec       q    Type
REMARK                         _______ _______ _______ _____ _____    ______ ____
ROOT
ATOM      1  C   UNL     1      22.029   7.079  19.576  0.00  0.00    +0.020 C 
ENDROOT
BRANCH   1   2
ATOM      2  C   UNL     1      22.893   8.164  20.197  0.00  0.00    +0.104 C 
BRANCH   2   5
ATOM      3  C   UNL     1      22.198  10.467  19.362  0.00  0.00    +0.237 C 
ATOM      4  O   UNL     1      21.331  10.541  20.288  0.00  0.00    -0.271 OA
ATOM      5  N   UNL     1      23.047   9.273  19.244  0.00  0.00    -0.312 N 
ATOM      6  H   UNL     1      23.719   9.216  18.526  0.00  0.00    +0.149 HD
BRANCH   3   8
ATOM      7  C   UNL     1      23.394  11.616  17.497  0.00  0.00    +0.013 C 
ATOM      8  C   UNL     1      22.356  11.613  18.376  0.00  0.00    +0.068 C 
BRANCH   7  13
ATOM      9  C   UNL     1      20.410  15.698  16.091  0.00  0.00    +0.162 A 
ATOM     10  C   UNL     1      21.606  15.805  15.296  0.00  0.00    +0.158 A 
ATOM     11  C   UNL     1      22.653  14.826  15.436  0.00  0.00    +0.050 A 
ATOM     12  C   UNL     1      22.504  13.740  16.371  0.00  0.00    +0.012 A 
ATOM     13  C   UNL     1      23.552  12.762  16.511  0.00  0.00    -0.021 A 
ATOM     14  C   UNL     1      19.363  16.677  15.951  0.00  0.00    +0.057 A 
BRANCH   9  16
ATOM     15  C   UNL     1      18.982  14.058  17.240  0.00  0.00    +0.277 C 
ATOM     16  O   UNL     1      20.263  14.627  17.012  0.00  0.00    -0.491 OA
ENDBRANCH   9  16
BRANCH  10  17
ATOM     17  O   UNL     1      21.753  16.875  14.375  0.00  0.00    -0.503 OA
ATOM     18  H   UNL     1      22.497  16.906  13.807  0.00  0.00    +0.292 HD
ENDBRANCH  10  17
ENDBRANCH   7  13
ENDBRANCH   3   8
ENDBRANCH   2   5
ENDBRANCH   1   2
BRANCH   1  19
ATOM     19  C   UNL     1      21.067   6.537  20.621  0.00  0.00    +0.020 C 
BRANCH  19  20
ATOM     20  C   UNL     1      19.698   7.167  20.424  0.00  0.00    +0.104 C 
BRANCH  20  21
ATOM     21  N   UNL     1      18.835   6.828  21.564  0.00  0.00    -0.312 N 
ATOM     22  C   UNL     1      17.736   5.865  21.395  0.00  0.00    +0.237 C 
ATOM     23  O   UNL     1      17.534   5.325  20.262  0.00  0.00    -0.271 OA
ATOM     24  H   UNL     1      18.992   7.246  22.442  0.00  0.00    +0.149 HD
BRANCH  22  25
ATOM     25  C   UNL     1      16.844   5.515  22.575  0.00  0.00    +0.068 C 
ATOM     26  C   UNL     1      15.775   4.694  22.398  0.00  0.00    +0.013 C 
BRANCH  26  27
ATOM     27  C   UNL     1      14.881   4.344  23.577  0.00  0.00    -0.021 A 
ATOM     28  C   UNL     1      15.315   4.633  24.919  0.00  0.00    +0.057 A 
ATOM     29  C   UNL     1      14.468   4.303  26.037  0.00  0.00    +0.162 A 
ATOM     30  C   UNL     1      13.187   3.684  25.811  0.00  0.00    +0.158 A 
ATOM     31  C   UNL     1      12.340   3.354  26.928  0.00  0.00    +0.050 A 
ATOM     32  C   UNL     1      13.600   3.726  23.351  0.00  0.00    +0.012 A 
BRANCH  30  33
ATOM     33  O   UNL     1      12.759   3.400  24.487  0.00  0.00    -0.503 OA
ATOM     34  H   UNL     1      12.435   2.548  24.272  0.00  0.00    +0.292 HD
ENDBRANCH  30  33
BRANCH  29  35
ATOM     35  O   UNL     1      14.895   4.587  27.361  0.00  0.00    -0.491 OA
ATOM     36  C   UNL     1      15.724   5.712  27.612  0.00  0.00    +0.277 C 
ENDBRANCH  29  35
ENDBRANCH  26  27
ENDBRANCH  22  25
ENDBRANCH  20  21
ENDBRANCH  19  20
ENDBRANCH   1  19
TORSDOF 13
ENDMDL
MODEL 4
REMARK VINA RESULT:      -7.0      3.710     13.071
REMARK  Name = 
REMARK  15 active torsions:
REMARK  status: ('A' for Active; 'I' for Inactive)
REMARK    1  A    between atoms: C_1  and  O_2
REMARK    2  A    between atoms: O_2  and  C_3
REMARK    3  A    between atoms: C_4  and  O_32
REMARK    4  A    between atoms: C_7  and  C_9
REMARK    5  A    between atoms: C_10  and  C_11
REMARK    6  A    between atoms: N_13  and  C_14
REMARK    7  A    between atoms: C_14  and  C_15
REMARK    8  A    between atoms: C_15  and  C_16
REMARK    9  A    between atoms: C_16  and  C_17
REMARK   10  A    between atoms: C_17  and  N_18
REMARK   11  A    between atoms: C_19  and  C_21
REMARK   12  A    between atoms: C_22  and  C_23
REMARK   13  A    between atoms: C_25  and  O_30
REMARK   14  A    between atoms: C_26  and  O_29
REMARK   15  A    between atoms: O_30  and  C_31
REMARK                            x       y       z     vdW  Elec       q    Type
REMARK                         _______ _______ _______ _____ _____    ______ ____
ROOT
ATOM      1  C   UNL     1      17.419   8.688  19.460  0.00  0.00    +0.020 C 
ENDROOT
BRANCH   1   2
ATOM      2  C   UNL     1      17.560  10.079  18.865  0.00  0.00    +0.104 C 
BRANCH   2   5
ATOM      3  C   UNL     1      19.383  11.652  18.039  0.00  0.00    +0.237 C 
ATOM      4  O   UNL     1      18.515  12.562  17.855  0.00  0.00    -0.271 OA
ATOM      5  N   UNL     1      18.974  10.340  18.559  0.00  0.00    -0.312 N 
ATOM      6  H   UNL     1      19.647   9.634  18.701  0.00  0.00    +0.149 HD
BRANCH   3   8
ATOM      7  C   UNL     1      21.821  11.241  18.381  0.00  0.00    +0.013 C 
ATOM      8  C   UNL     1      20.846  11.921  17.722  0.00  0.00    +0.068 C 
BRANCH   7  13
ATOM      9  C   UNL     1      24.360  14.785  15.459  0.00  0.00    +0.162 A 
ATOM     10  C   UNL     1      25.386  13.948  16.025  0.00  0.00    +0.158 A 
ATOM     11  C   UNL     1      25.027  12.856  16.893  0.00  0.00    +0.050 A 
ATOM     12  C   UNL     1      23.642  12.601  17.195  0.00  0.00    +0.012 A 
ATOM     13  C   UNL     1      23.283  11.510  18.063  0.00  0.00    -0.021 A 
ATOM     14  C   UNL     1      24.719  15.876  14.591  0.00  0.00    +0.057 A 
BRANCH   9  16
ATOM     15  C   UNL     1      21.982  15.351  15.188  0.00  0.00    +0.277 C 
ATOM     16  O   UNL     1      22.994  14.533  15.756  0.00  0.00    -0.491 OA
ENDBRANCH   9  16
BRANCH  10  17
ATOM     17  O   UNL     1      26.751  14.199  15.727  0.00  0.00    -0.503 OA
ATOM     18  H   UNL     1      27.093  15.069  15.790  0.00  0.00    +0.292 HD
ENDBRANCH  10  17
ENDBRANCH   7  13
ENDBRANCH   3   8
ENDBRANCH   2   5
ENDBRANCH   1   2
BRANCH   1  19
ATOM     19  C   UNL     1      18.485   8.482  20.524  0.00  0.00    +0.020 C 
BRANCH  19  20
ATOM     20  C   UNL     1      18.800   6.999  20.646  0.00  0.00    +0.104 C 
BRANCH  20  21
ATOM     21  N   UNL     1      17.936   6.399  21.672  0.00  0.00    -0.312 N 
ATOM     22  C   UNL     1      17.218   5.147  21.388  0.00  0.00    +0.237 C 
ATOM     23  O   UNL     1      17.346   4.584  20.256  0.00  0.00    -0.271 OA
ATOM     24  H   UNL     1      17.837   6.835  22.550  0.00  0.00    +0.149 HD
BRANCH  22  25
ATOM     25  C   UNL     1      16.325   4.525  22.450  0.00  0.00    +0.068 C 
ATOM     26  C   UNL     1      15.640   5.321  23.313  0.00  0.00    +0.013 C 
BRANCH  26  27
ATOM     27  C   UNL     1      14.748   4.699  24.375  0.00  0.00    -0.021 A 
ATOM     28  C   UNL     1      15.173   4.678  25.751  0.00  0.00    +0.057 A 
ATOM     29  C   UNL     1      14.327   4.090  26.758  0.00  0.00    +0.162 A 
ATOM     30  C   UNL     1      13.056   3.523  26.388  0.00  0.00    +0.158 A 
ATOM     31  C   UNL     1      12.210   2.935  27.394  0.00  0.00    +0.050 A 
ATOM     32  C   UNL     1      13.476   4.133  24.006  0.00  0.00    +0.012 A 
BRANCH  30  33
ATOM     33  O   UNL     1      12.636   3.545  25.031  0.00  0.00    -0.503 OA
ATOM     34  H   UNL     1      11.968   2.958  24.738  0.00  0.00    +0.292 HD
ENDBRANCH  30  33
BRANCH  29  35
ATOM     35  O   UNL     1      14.746   4.069  28.114  0.00  0.00    -0.491 OA
ATOM     36  C   UNL     1      14.842   5.282  28.846  0.00  0.00    +0.277 C 
ENDBRANCH  29  35
ENDBRANCH  26  27
ENDBRANCH  22  25
ENDBRANCH  20  21
ENDBRANCH  19  20
ENDBRANCH   1  19
TORSDOF 13
ENDMDL
MODEL 5
REMARK VINA RESULT:      -6.8      2.728     11.895
REMARK  Name = 
REMARK  15 active torsions:
REMARK  status: ('A' for Active; 'I' for Inactive)
REMARK    1  A    between atoms: C_1  and  O_2
REMARK    2  A    between atoms: O_2  and  C_3
REMARK    3  A    between atoms: C_4  and  O_32
REMARK    4  A    between atoms: C_7  and  C_9
REMARK    5  A    between atoms: C_10  and  C_11
REMARK    6  A    between atoms: N_13  and  C_14
REMARK    7  A    between atoms: C_14  and  C_15
REMARK    8  A    between atoms: C_15  and  C_16
REMARK    9  A    between atoms: C_16  and  C_17
REMARK   10  A    between atoms: C_17  and  N_18
REMARK   11  A    between atoms: C_19  and  C_21
REMARK   12  A    between atoms: C_22  and  C_23
REMARK   13  A    between atoms: C_25  and  O_30
REMARK   14  A    between atoms: C_26  and  O_29
REMARK   15  A    between atoms: O_30  and  C_31
REMARK                            x       y       z     vdW  Elec       q    Type
REMARK                         _______ _______ _______ _____ _____    ______ ____
ROOT
ATOM      1  C   UNL     1      22.886   8.965  20.233  0.00  0.00    +0.020 C 
ENDROOT
BRANCH   1   2
ATOM      2  C   UNL     1      21.600   9.710  20.549  0.00  0.00    +0.104 C 
BRANCH   2   5
ATOM      3  C   UNL     1      20.590  10.919  18.549  0.00  0.00    +0.237 C 
ATOM      4  O   UNL     1      19.882   9.896  18.288  0.00  0.00    -0.271 OA
ATOM      5  N   UNL     1      21.505  10.906  19.699  0.00  0.00    -0.312 N 
ATOM      6  H   UNL     1      22.054  11.698  19.901  0.00  0.00    +0.149 HD
BRANCH   3   8
ATOM      7  C   UNL     1      19.426  12.991  17.787  0.00  0.00    +0.013 C 
ATOM      8  C   UNL     1      20.493  12.155  17.669  0.00  0.00    +0.068 C 
BRANCH   7  13
ATOM      9  C   UNL     1      22.905  15.950  15.201  0.00  0.00    +0.162 A 
ATOM     10  C   UNL     1      21.621  16.547  14.938  0.00  0.00    +0.158 A 
ATOM     11  C   UNL     1      20.429  15.973  15.507  0.00  0.00    +0.050 A 
ATOM     12  C   UNL     1      20.521  14.802  16.339  0.00  0.00    +0.012 A 
ATOM     13  C   UNL     1      19.329  14.227  16.909  0.00  0.00    -0.021 A 
ATOM     14  C   UNL     1      24.097  16.524  14.632  0.00  0.00    +0.057 A 
BRANCH   9  16
ATOM     15  C   UNL     1      24.268  14.268  16.368  0.00  0.00    +0.277 C 
ATOM     16  O   UNL     1      22.995  14.795  16.022  0.00  0.00    -0.491 OA
ENDBRANCH   9  16
BRANCH  10  17
ATOM     17  O   UNL     1      21.531  17.703  14.117  0.00  0.00    -0.503 OA
ATOM     18  H   UNL     1      22.310  18.137  13.830  0.00  0.00    +0.292 HD
ENDBRANCH  10  17
ENDBRANCH   7  13
ENDBRANCH   3   8
ENDBRANCH   2   5
ENDBRANCH   1   2
BRANCH   1  19
ATOM     19  C   UNL     1      22.576   7.776  19.339  0.00  0.00    +0.020 C 
BRANCH  19  20
ATOM     20  C   UNL     1      22.434   6.525  20.191  0.00  0.00    +0.104 C 
BRANCH  20  21
ATOM     21  N   UNL     1      21.009   6.208  20.362  0.00  0.00    -0.312 N 
ATOM     22  C   UNL     1      20.338   6.499  21.638  0.00  0.00    +0.237 C 
ATOM     23  O   UNL     1      20.992   7.025  22.593  0.00  0.00    -0.271 OA
ATOM     24  H   UNL     1      20.503   5.800  19.621  0.00  0.00    +0.149 HD
BRANCH  22  25
ATOM     25  C   UNL     1      18.864   6.171  21.814  0.00  0.00    +0.068 C 
ATOM     26  C   UNL     1      18.484   5.201  22.687  0.00  0.00    +0.013 C 
BRANCH  26  27
ATOM     27  C   UNL     1      17.010   4.872  22.863  0.00  0.00    -0.021 A 
ATOM     28  C   UNL     1      16.373   5.079  24.137  0.00  0.00    +0.057 A 
ATOM     29  C   UNL     1      14.976   4.769  24.304  0.00  0.00    +0.162 A 
ATOM     30  C   UNL     1      14.216   4.252  23.195  0.00  0.00    +0.158 A 
ATOM     31  C   UNL     1      12.820   3.942  23.361  0.00  0.00    +0.050 A 
ATOM     32  C   UNL     1      16.250   4.356  21.754  0.00  0.00    +0.012 A 
BRANCH  30  33
ATOM     33  O   UNL     1      14.845   4.049  21.937  0.00  0.00    -0.503 OA
ATOM     34  H   UNL     1      14.330   4.023  21.155  0.00  0.00    +0.292 HD
ENDBRANCH  30  33
BRANCH  29  35
ATOM     35  O   UNL     1      14.348   4.973  25.561  0.00  0.00    -0.491 OA
ATOM     36  C   UNL     1      14.618   4.090  26.641  0.00  0.00    +0.277 C 
ENDBRANCH  29  35
ENDBRANCH  26  27
ENDBRANCH  22  25
ENDBRANCH  20  21
ENDBRANCH  19  20
ENDBRANCH   1  19
TORSDOF 13
ENDMDL
MODEL 6
REMARK VINA RESULT:      -6.6      3.289     13.408
REMARK  Name = 
REMARK  15 active torsions:
REMARK  status: ('A' for Active; 'I' for Inactive)
REMARK    1  A    between atoms: C_1  and  O_2
REMARK    2  A    between atoms: O_2  and  C_3
REMARK    3  A    between atoms: C_4  and  O_32
REMARK    4  A    between atoms: C_7  and  C_9
REMARK    5  A    between atoms: C_10  and  C_11
REMARK    6  A    between atoms: N_13  and  C_14
REMARK    7  A    between atoms: C_14  and  C_15
REMARK    8  A    between atoms: C_15  and  C_16
REMARK    9  A    between atoms: C_16  and  C_17
REMARK   10  A    between atoms: C_17  and  N_18
REMARK   11  A    between atoms: C_19  and  C_21
REMARK   12  A    between atoms: C_22  and  C_23
REMARK   13  A    between atoms: C_25  and  O_30
REMARK   14  A    between atoms: C_26  and  O_29
REMARK   15  A    between atoms: O_30  and  C_31
REMARK                            x       y       z     vdW  Elec       q    Type
REMARK                         _______ _______ _______ _____ _____    ______ ____
ROOT
ATOM      1  C   UNL     1      20.793   7.938  19.883  0.00  0.00    +0.020 C 
ENDROOT
BRANCH   1   2
ATOM      2  C   UNL     1      21.765   8.721  20.750  0.00  0.00    +0.104 C 
BRANCH   2   5
ATOM      3  C   UNL     1      22.022  10.985  19.613  0.00  0.00    +0.237 C 
ATOM      4  O   UNL     1      20.902  11.351  20.090  0.00  0.00    -0.271 OA
ATOM      5  N   UNL     1      22.541   9.641  19.906  0.00  0.00    -0.312 N 
ATOM      6  H   UNL     1      23.409   9.357  19.537  0.00  0.00    +0.149 HD
BRANCH   3   8
ATOM      7  C   UNL     1      23.012  11.656  17.423  0.00  0.00    +0.013 C 
ATOM      8  C   UNL     1      22.825  11.936  18.740  0.00  0.00    +0.068 C 
BRANCH   7  13
ATOM      9  C   UNL     1      22.080  16.357  15.283  0.00  0.00    +0.162 A 
ATOM     10  C   UNL     1      23.417  16.009  14.879  0.00  0.00    +0.158 A 
ATOM     11  C   UNL     1      23.995  14.759  15.301  0.00  0.00    +0.050 A 
ATOM     12  C   UNL     1      23.236  13.858  16.128  0.00  0.00    +0.012 A 
ATOM     13  C   UNL     1      23.814  12.608  16.550  0.00  0.00    -0.021 A 
ATOM     14  C   UNL     1      21.502  17.607  14.861  0.00  0.00    +0.057 A 
BRANCH   9  16
ATOM     15  C   UNL     1      20.126  15.908  16.708  0.00  0.00    +0.277 C 
ATOM     16  O   UNL     1      21.331  15.468  16.098  0.00  0.00    -0.491 OA
ENDBRANCH   9  16
BRANCH  10  17
ATOM     17  O   UNL     1      24.166  16.898  14.062  0.00  0.00    -0.503 OA
ATOM     18  H   UNL     1      24.389  16.654  13.186  0.00  0.00    +0.292 HD
ENDBRANCH  10  17
ENDBRANCH   7  13
ENDBRANCH   3   8
ENDBRANCH   2   5
ENDBRANCH   1   2
BRANCH   1  19
ATOM     19  C   UNL     1      20.068   6.909  20.736  0.00  0.00    +0.020 C 
BRANCH  19  20
ATOM     20  C   UNL     1      18.584   6.933  20.408  0.00  0.00    +0.104 C 
BRANCH  20  21
ATOM     21  N   UNL     1      17.820   6.434  21.560  0.00  0.00    -0.312 N 
ATOM     22  C   UNL     1      17.396   5.026  21.607  0.00  0.00    +0.237 C 
ATOM     23  O   UNL     1      17.691   4.242  20.652  0.00  0.00    -0.271 OA
ATOM     24  H   UNL     1      17.591   7.042  22.301  0.00  0.00    +0.149 HD
BRANCH  22  25
ATOM     25  C   UNL     1      16.606   4.510  22.798  0.00  0.00    +0.068 C 
ATOM     26  C   UNL     1      15.261   4.705  22.859  0.00  0.00    +0.013 C 
BRANCH  26  27
ATOM     27  C   UNL     1      14.471   4.190  24.051  0.00  0.00    -0.021 A 
ATOM     28  C   UNL     1      13.690   2.987  23.931  0.00  0.00    +0.057 A 
ATOM     29  C   UNL     1      12.942   2.497  25.061  0.00  0.00    +0.162 A 
ATOM     30  C   UNL     1      12.976   3.212  26.311  0.00  0.00    +0.158 A 
ATOM     31  C   UNL     1      12.228   2.723  27.440  0.00  0.00    +0.050 A 
ATOM     32  C   UNL     1      14.506   4.904  25.301  0.00  0.00    +0.012 A 
BRANCH  30  33
ATOM     33  O   UNL     1      13.747   4.399  26.429  0.00  0.00    -0.503 OA
ATOM     34  H   UNL     1      14.067   4.828  25.661  0.00  0.00    +0.292 HD
ENDBRANCH  30  33
BRANCH  29  35
ATOM     35  O   UNL     1      12.171   1.311  24.942  0.00  0.00    -0.491 OA
ATOM     36  C   UNL     1      11.843   0.802  23.658  0.00  0.00    +0.277 C 
ENDBRANCH  29  35
ENDBRANCH  26  27
ENDBRANCH  22  25
ENDBRANCH  20  21
ENDBRANCH  19  20
ENDBRANCH   1  19
TORSDOF 13
ENDMDL
MODEL 7
REMARK VINA RESULT:      -6.4      5.861     12.195
REMARK  Name = 
REMARK  15 active torsions:
REMARK  status: ('A' for Active; 'I' for Inactive)
REMARK    1  A    between atoms: C_1  and  O_2
REMARK    2  A    between atoms: O_2  and  C_3
REMARK    3  A    between atoms: C_4  and  O_32
REMARK    4  A    between atoms: C_7  and  C_9
REMARK    5  A    between atoms: C_10  and  C_11
REMARK    6  A    between atoms: N_13  and  C_14
REMARK    7  A    between atoms: C_14  and  C_15
REMARK    8  A    between atoms: C_15  and  C_16
REMARK    9  A    between atoms: C_16  and  C_17
REMARK   10  A    between atoms: C_17  and  N_18
REMARK   11  A    between atoms: C_19  and  C_21
REMARK   12  A    between atoms: C_22  and  C_23
REMARK   13  A    between atoms: C_25  and  O_30
REMARK   14  A    between atoms: C_26  and  O_29
REMARK   15  A    between atoms: O_30  and  C_31
REMARK                            x       y       z     vdW  Elec       q    Type
REMARK                         _______ _______ _______ _____ _____    ______ ____
ROOT
ATOM      1  C   UNL     1      18.973   5.840  22.031  0.00  0.00    +0.020 C 
ENDROOT
BRANCH   1   2
ATOM      2  C   UNL     1      19.055   5.972  20.520  0.00  0.00    +0.104 C 
BRANCH   2   5
ATOM      3  C   UNL     1      21.438   6.821  20.227  0.00  0.00    +0.237 C 
ATOM      4  O   UNL     1      21.886   5.684  20.575  0.00  0.00    -0.271 OA
ATOM      5  N   UNL     1      19.987   7.054  20.172  0.00  0.00    -0.312 N 
ATOM      6  H   UNL     1      19.640   7.935  19.902  0.00  0.00    +0.149 HD
BRANCH   3   8
ATOM      7  C   UNL     1      21.938   9.074  19.276  0.00  0.00    +0.013 C 
ATOM      8  C   UNL     1      22.402   7.940  19.868  0.00  0.00    +0.068 C 
BRANCH   7  13
ATOM      9  C   UNL     1      21.429  13.793  17.038  0.00  0.00    +0.162 A 
ATOM     10  C   UNL     1      22.833  13.654  17.325  0.00  0.00    +0.158 A 
ATOM     11  C   UNL     1      23.324  12.454  17.951  0.00  0.00    +0.050 A 
ATOM     12  C   UNL     1      22.411  11.393  18.291  0.00  0.00    +0.012 A 
ATOM     13  C   UNL     1      22.902  10.193  18.918  0.00  0.00    -0.021 A 
ATOM     14  C   UNL     1      20.938  14.994  16.411  0.00  0.00    +0.057 A 
BRANCH   9  16
ATOM     15  C   UNL     1      19.213  12.744  16.836  0.00  0.00    +0.277 C 
ATOM     16  O   UNL     1      20.528  12.748  17.372  0.00  0.00    -0.491 OA
ENDBRANCH   9  16
BRANCH  10  17
ATOM     17  O   UNL     1      23.733  14.699  16.989  0.00  0.00    -0.503 OA
ATOM     18  H   UNL     1      23.635  15.161  16.180  0.00  0.00    +0.292 HD
ENDBRANCH  10  17
ENDBRANCH   7  13
ENDBRANCH   3   8
ENDBRANCH   2   5
ENDBRANCH   1   2
BRANCH   1  19
ATOM     19  C   UNL     1      18.209   4.576  22.389  0.00  0.00    +0.020 C 
BRANCH  19  20
ATOM     20  C   UNL     1      18.078   4.474  23.900  0.00  0.00    +0.104 C 
BRANCH  20  21
ATOM     21  N   UNL     1      18.863   5.543  24.534  0.00  0.00    -0.312 N 
ATOM     22  C   UNL     1      19.193   5.464  25.964  0.00  0.00    +0.237 C 
ATOM     23  O   UNL     1      18.800   4.470  26.653  0.00  0.00    -0.271 OA
ATOM     24  H   UNL     1      19.167   6.312  24.000  0.00  0.00    +0.149 HD
BRANCH  22  25
ATOM     25  C   UNL     1      20.005   6.569  26.619  0.00  0.00    +0.068 C 
ATOM     26  C   UNL     1      19.569   7.141  27.773  0.00  0.00    +0.013 C 
BRANCH  26  27
ATOM     27  C   UNL     1      20.380   8.248  28.427  0.00  0.00    -0.021 A 
ATOM     28  C   UNL     1      21.122   7.980  29.632  0.00  0.00    +0.057 A 
ATOM     29  C   UNL     1      21.891   9.028  30.252  0.00  0.00    +0.162 A 
ATOM     30  C   UNL     1      21.920  10.343  29.666  0.00  0.00    +0.158 A 
ATOM     31  C   UNL     1      22.689  11.391  30.286  0.00  0.00    +0.050 A 
ATOM     32  C   UNL     1      20.409   9.563  27.841  0.00  0.00    +0.012 A 
BRANCH  30  33
ATOM     33  O   UNL     1      21.188  10.607  28.477  0.00  0.00    -0.503 OA
ATOM     34  H   UNL     1      21.625  10.605  27.648  0.00  0.00    +0.292 HD
ENDBRANCH  30  33
BRANCH  29  35
ATOM     35  O   UNL     1      22.622   8.765  31.441  0.00  0.00    -0.491 OA
ATOM     36  C   UNL     1      22.321   7.616  32.219  0.00  0.00    +0.277 C 
ENDBRANCH  29  35
ENDBRANCH  26  27
ENDBRANCH  22  25
ENDBRANCH  20  21
ENDBRANCH  19  20
ENDBRANCH   1  19
TORSDOF 13
ENDMDL
MODEL 8
REMARK VINA RESULT:      -6.4      2.179     10.961
REMARK  Name = 
REMARK  15 active torsions:
REMARK  status: ('A' for Active; 'I' for Inactive)
REMARK    1  A    between atoms: C_1  and  O_2
REMARK    2  A    between atoms: O_2  and  C_3
REMARK    3  A    between atoms: C_4  and  O_32
REMARK    4  A    between atoms: C_7  and  C_9
REMARK    5  A    between atoms: C_10  and  C_11
REMARK    6  A    between atoms: N_13  and  C_14
REMARK    7  A    between atoms: C_14  and  C_15
REMARK    8  A    between atoms: C_15  and  C_16
REMARK    9  A    between atoms: C_16  and  C_17
REMARK   10  A    between atoms: C_17  and  N_18
REMARK   11  A    between atoms: C_19  and  C_21
REMARK   12  A    between atoms: C_22  and  C_23
REMARK   13  A    between atoms: C_25  and  O_30
REMARK   14  A    between atoms: C_26  and  O_29
REMARK   15  A    between atoms: O_30  and  C_31
REMARK                            x       y       z     vdW  Elec       q    Type
REMARK                         _______ _______ _______ _____ _____    ______ ____
ROOT
ATOM      1  C   UNL     1      23.726   9.085  20.370  0.00  0.00    +0.020 C 
ENDROOT
BRANCH   1   2
ATOM      2  C   UNL     1      22.397   9.811  20.249  0.00  0.00    +0.104 C 
BRANCH   2   5
ATOM      3  C   UNL     1      21.876  11.223  18.196  0.00  0.00    +0.237 C 
ATOM      4  O   UNL     1      21.105  10.309  17.763  0.00  0.00    -0.271 OA
ATOM      5  N   UNL     1      22.581  11.045  19.473  0.00  0.00    -0.312 N 
ATOM      6  H   UNL     1      23.178  11.753  19.808  0.00  0.00    +0.149 HD
BRANCH   3   8
ATOM      7  C   UNL     1      23.216  12.696  16.691  0.00  0.00    +0.013 C 
ATOM      8  C   UNL     1      22.067  12.499  17.392  0.00  0.00    +0.068 C 
BRANCH   7  13
ATOM      9  C   UNL     1      20.077  16.655  15.271  0.00  0.00    +0.162 A 
ATOM     10  C   UNL     1      21.368  16.969  14.715  0.00  0.00    +0.158 A 
ATOM     11  C   UNL     1      22.478  16.075  14.920  0.00  0.00    +0.050 A 
ATOM     12  C   UNL     1      22.297  14.866  15.682  0.00  0.00    +0.012 A 
ATOM     13  C   UNL     1      23.407  13.971  15.888  0.00  0.00    -0.021 A 
ATOM     14  C   UNL     1      18.968  17.549  15.065  0.00  0.00    +0.057 A 
BRANCH   9  16
ATOM     15  C   UNL     1      18.976  15.434  17.100  0.00  0.00    +0.277 C 
ATOM     16  O   UNL     1      19.899  15.463  16.021  0.00  0.00    -0.491 OA
ENDBRANCH   9  16
BRANCH  10  17
ATOM     17  O   UNL     1      21.546  18.161  13.963  0.00  0.00    -0.503 OA
ATOM     18  H   UNL     1      20.960  18.364  13.261  0.00  0.00    +0.292 HD
ENDBRANCH  10  17
ENDBRANCH   7  13
ENDBRANCH   3   8
ENDBRANCH   2   5
ENDBRANCH   1   2
BRANCH   1  19
ATOM     19  C   UNL     1      23.489   7.676  20.891  0.00  0.00    +0.020 C 
BRANCH  19  20
ATOM     20  C   UNL     1      22.868   7.747  22.277  0.00  0.00    +0.104 C 
BRANCH  20  21
ATOM     21  N   UNL     1      21.425   7.487  22.180  0.00  0.00    -0.312 N 
ATOM     22  C   UNL     1      20.922   6.468  21.247  0.00  0.00    +0.237 C 
ATOM     23  O   UNL     1      21.735   5.811  20.524  0.00  0.00    -0.271 OA
ATOM     24  H   UNL     1      20.794   7.995  22.741  0.00  0.00    +0.149 HD
BRANCH  22  25
ATOM     25  C   UNL     1      19.429   6.198  21.148  0.00  0.00    +0.068 C 
ATOM     26  C   UNL     1      18.616   7.096  20.529  0.00  0.00    +0.013 C 
BRANCH  26  27
ATOM     27  C   UNL     1      17.123   6.827  20.430  0.00  0.00    -0.021 A 
ATOM     28  C   UNL     1      16.474   6.001  21.415  0.00  0.00    +0.057 A 
ATOM     29  C   UNL     1      15.059   5.747  21.322  0.00  0.00    +0.162 A 
ATOM     30  C   UNL     1      14.293   6.320  20.245  0.00  0.00    +0.158 A 
ATOM     31  C   UNL     1      12.879   6.066  20.152  0.00  0.00    +0.050 A 
ATOM     32  C   UNL     1      16.358   7.400  19.353  0.00  0.00    +0.012 A 
BRANCH  30  33
ATOM     33  O   UNL     1      14.934   7.135  19.274  0.00  0.00    -0.503 OA
ATOM     34  H   UNL     1      14.798   8.062  19.276  0.00  0.00    +0.292 HD
ENDBRANCH  30  33
BRANCH  29  35
ATOM     35  O   UNL     1      14.418   4.932  22.293  0.00  0.00    -0.491 OA
ATOM     36  C   UNL     1      15.171   3.978  23.027  0.00  0.00    +0.277 C 
ENDBRANCH  29  35
ENDBRANCH  26  27
ENDBRANCH  22  25
ENDBRANCH  20  21
ENDBRANCH  19  20
ENDBRANCH   1  19
TORSDOF 13
ENDMDL
MODEL 9
REMARK VINA RESULT:      -6.3      7.452     15.596
REMARK  Name = 
REMARK  15 active torsions:
REMARK  status: ('A' for Active; 'I' for Inactive)
REMARK    1  A    between atoms: C_1  and  O_2
REMARK    2  A    between atoms: O_2  and  C_3
REMARK    3  A    between atoms: C_4  and  O_32
REMARK    4  A    between atoms: C_7  and  C_9
REMARK    5  A    between atoms: C_10  and  C_11
REMARK    6  A    between atoms: N_13  and  C_14
REMARK    7  A    between atoms: C_14  and  C_15
REMARK    8  A    between atoms: C_15  and  C_16
REMARK    9  A    between atoms: C_16  and  C_17
REMARK   10  A    between atoms: C_17  and  N_18
REMARK   11  A    between atoms: C_19  and  C_21
REMARK   12  A    between atoms: C_22  and  C_23
REMARK   13  A    between atoms: C_25  and  O_30
REMARK   14  A    between atoms: C_26  and  O_29
REMARK   15  A    between atoms: O_30  and  C_31
REMARK                            x       y       z     vdW  Elec       q    Type
REMARK                         _______ _______ _______ _____ _____    ______ ____
ROOT
ATOM      1  C   UNL     1      15.335   5.492  26.799  0.00  0.00    +0.020 C 
ENDROOT
BRANCH   1   2
ATOM      2  C   UNL     1      16.231   4.810  25.778  0.00  0.00    +0.104 C 
BRANCH   2   5
ATOM      3  C   UNL     1      15.798   5.578  23.389  0.00  0.00    +0.237 C 
ATOM      4  O   UNL     1      14.952   4.642  23.241  0.00  0.00    -0.271 OA
ATOM      5  N   UNL     1      16.504   5.736  24.669  0.00  0.00    -0.312 N 
ATOM      6  H   UNL     1      17.160   6.461  24.784  0.00  0.00    +0.149 HD
BRANCH   3   8
ATOM      7  C   UNL     1      15.245   6.579  21.170  0.00  0.00    +0.013 C 
ATOM      8  C   UNL     1      16.081   6.535  22.242  0.00  0.00    +0.068 C 
BRANCH   7  13
ATOM      9  C   UNL     1      19.598   8.260  18.770  0.00  0.00    +0.162 A 
ATOM     10  C   UNL     1      18.510   8.926  18.102  0.00  0.00    +0.158 A 
ATOM     11  C   UNL     1      17.153   8.685  18.521  0.00  0.00    +0.050 A 
ATOM     12  C   UNL     1      16.885   7.777  19.606  0.00  0.00    +0.012 A 
ATOM     13  C   UNL     1      15.528   7.536  20.025  0.00  0.00    -0.021 A 
ATOM     14  C   UNL     1      20.955   8.502  18.351  0.00  0.00    +0.057 A 
BRANCH   9  16
ATOM     15  C   UNL     1      20.309   7.163  20.853  0.00  0.00    +0.277 C 
ATOM     16  O   UNL     1      19.334   7.366  19.841  0.00  0.00    -0.491 OA
ENDBRANCH   9  16
BRANCH  10  17
ATOM     17  O   UNL     1      18.775   9.821  17.032  0.00  0.00    -0.503 OA
ATOM     18  H   UNL     1      19.603   9.798  16.595  0.00  0.00    +0.292 HD
ENDBRANCH  10  17
ENDBRANCH   7  13
ENDBRANCH   3   8
ENDBRANCH   2   5
ENDBRANCH   1   2
BRANCH   1  19
ATOM     19  C   UNL     1      16.186   6.038  27.934  0.00  0.00    +0.020 C 
BRANCH  19  20
ATOM     20  C   UNL     1      15.313   6.263  29.158  0.00  0.00    +0.104 C 
BRANCH  20  21
ATOM     21  N   UNL     1      14.005   5.624  28.951  0.00  0.00    -0.312 N 
ATOM     22  C   UNL     1      13.173   5.261  30.108  0.00  0.00    +0.237 C 
ATOM     23  O   UNL     1      13.584   5.500  31.287  0.00  0.00    -0.271 OA
ATOM     24  H   UNL     1      13.687   5.439  28.038  0.00  0.00    +0.149 HD
BRANCH  22  25
ATOM     25  C   UNL     1      11.820   4.601  29.894  0.00  0.00    +0.068 C 
ATOM     26  C   UNL     1      10.678   5.295  30.146  0.00  0.00    +0.013 C 
BRANCH  26  27
ATOM     27  C   UNL     1       9.326   4.634  29.933  0.00  0.00    -0.021 A 
ATOM     28  C   UNL     1       9.253   3.298  29.403  0.00  0.00    +0.057 A 
ATOM     29  C   UNL     1       7.971   2.671  29.201  0.00  0.00    +0.162 A 
ATOM     30  C   UNL     1       6.763   3.382  29.533  0.00  0.00    +0.158 A 
ATOM     31  C   UNL     1       5.481   2.756  29.332  0.00  0.00    +0.050 A 
ATOM     32  C   UNL     1       8.118   5.344  30.264  0.00  0.00    +0.012 A 
BRANCH  30  33
ATOM     33  O   UNL     1       6.835   4.700  30.057  0.00  0.00    -0.503 OA
ATOM     34  H   UNL     1       6.110   5.284  29.959  0.00  0.00    +0.292 HD
ENDBRANCH  30  33
BRANCH  29  35
ATOM     35  O   UNL     1       7.899   1.353  28.678  0.00  0.00    -0.491 OA
ATOM     36  C   UNL     1       8.212   1.113  27.314  0.00  0.00    +0.277 C 
ENDBRANCH  29  35
ENDBRANCH  26  27
ENDBRANCH  22  25
ENDBRANCH  20  21
ENDBRANCH  19  20
ENDBRANCH   1  19
TORSDOF 13
ENDMDL
