MODEL 1
REMARK VINA RESULT:      -5.8      0.000      0.000
REMARK  Name = 
REMARK  6 active torsions:
REMARK  status: ('A' for Active; 'I' for Inactive)
REMARK    1  A    between atoms: C_8  and  C_9
REMARK    2  A    between atoms: C_9  and  C_10
REMARK    3  A    between atoms: C_11  and  C_12
REMARK    4  A    between atoms: C_11  and  C_15
REMARK    5  A    between atoms: C_13  and  O_14
REMARK    6  A    between atoms: C_15  and  O_16
REMARK                            x       y       z     vdW  Elec       q    Type
REMARK                         _______ _______ _______ _____ _____    ______ ____
ROOT
ATOM      1  C   UNL     1      49.543  10.951  11.274  0.00  0.00    +0.010 A 
ATOM      2  C   UNL     1      48.726  11.274  12.415  0.00  0.00    +0.001 A 
ATOM      3  C   UNL     1      48.989  10.653  13.687  0.00  0.00    +0.002 A 
ATOM      4  C   UNL     1      48.173  10.976  14.829  0.00  0.00    +0.026 A 
ATOM      5  C   UNL     1      48.436  10.355  16.101  0.00  0.00    +0.048 A 
ATOM      6  N   UNL     1      47.646  10.668  17.205  0.00  0.00    -0.352 N 
ATOM      7  C   UNL     1      47.899  10.067  18.436  0.00  0.00    +0.073 A 
ATOM      8  C   UNL     1      47.083  10.390  19.577  0.00  0.00    +0.091 A 
ATOM      9  N   UNL     1      47.337   9.790  20.807  0.00  0.00    -0.253 NA
ATOM     10  C   UNL     1      46.547  10.102  21.911  0.00  0.00    +0.112 A 
ATOM     11  C   UNL     1      46.810   9.481  23.184  0.00  0.00    +0.030 A 
ATOM     12  C   UNL     1      48.979   9.123  18.566  0.00  0.00    +0.011 A 
ATOM     13  C   UNL     1      49.515   9.411  16.232  0.00  0.00    +0.008 A 
ATOM     14  H   UNL     1      46.907  11.313  17.115  0.00  0.00    +0.166 HD
ENDROOT
BRANCH   8  15
ATOM     15  C   UNL     1      45.943  11.387  19.439  0.00  0.00    -0.018 C 
ATOM     16  C   UNL     1      44.540  10.898  19.120  0.00  0.00    +0.046 C 
ATOM     17  C   UNL     1      46.179  12.717  19.600  0.00  0.00    -0.014 C 
BRANCH  17  18
ATOM     18  C   UNL     1      45.040  13.714  19.462  0.00  0.00    +0.043 C 
ATOM     19  C   UNL     1      44.999  14.556  18.395  0.00  0.00    +0.183 C 
BRANCH  19  20
ATOM     20  O   UNL     1      43.935  15.487  18.265  0.00  0.00    -0.514 OA
ATOM     21  H   UNL     1      43.053  15.181  18.180  0.00  0.00    +0.291 HD
ENDBRANCH  19  20
ENDBRANCH  17  18
BRANCH  17  22
ATOM     22  C   UNL     1      47.583  13.206  19.919  0.00  0.00    +0.191 C 
BRANCH  22  23
ATOM     23  O   UNL     1      47.669  13.532  21.299  0.00  0.00    -0.390 OA
ATOM     24  H   UNL     1      46.955  13.087  21.782  0.00  0.00    +0.210 HD
ENDBRANCH  22  23
ENDBRANCH  17  22
ENDBRANCH   8  15
TORSDOF 5
ENDMDL
MODEL 2
REMARK VINA RESULT:      -5.1     30.295     32.512
REMARK  Name = 
REMARK  6 active torsions:
REMARK  status: ('A' for Active; 'I' for Inactive)
REMARK    1  A    between atoms: C_8  and  C_9
REMARK    2  A    between atoms: C_9  and  C_10
REMARK    3  A    between atoms: C_11  and  C_12
REMARK    4  A    between atoms: C_11  and  C_15
REMARK    5  A    between atoms: C_13  and  O_14
REMARK    6  A    between atoms: C_15  and  O_16
REMARK                            x       y       z     vdW  Elec       q    Type
REMARK                         _______ _______ _______ _____ _____    ______ ____
ROOT
ATOM      1  C   UNL     1      16.020   8.764  18.492  0.00  0.00    +0.010 A 
ATOM      2  C   UNL     1      16.239   8.391  19.866  0.00  0.00    +0.001 A 
ATOM      3  C   UNL     1      15.692   7.159  20.372  0.00  0.00    +0.002 A 
ATOM      4  C   UNL     1      15.911   6.785  21.746  0.00  0.00    +0.026 A 
ATOM      5  C   UNL     1      15.364   5.553  22.252  0.00  0.00    +0.048 A 
ATOM      6  N   UNL     1      15.576   5.191  23.581  0.00  0.00    -0.352 N 
ATOM      7  C   UNL     1      15.047   4.000  24.072  0.00  0.00    +0.073 A 
ATOM      8  C   UNL     1      15.266   3.626  25.445  0.00  0.00    +0.091 A 
ATOM      9  N   UNL     1      14.738   2.435  25.935  0.00  0.00    -0.253 NA
ATOM     10  C   UNL     1      14.949   2.073  27.264  0.00  0.00    +0.112 A 
ATOM     11  C   UNL     1      14.403   0.841  27.770  0.00  0.00    +0.030 A 
ATOM     12  C   UNL     1      14.282   3.141  23.204  0.00  0.00    +0.011 A 
ATOM     13  C   UNL     1      14.599   4.694  21.386  0.00  0.00    +0.008 A 
ATOM     14  H   UNL     1      16.099   5.779  24.173  0.00  0.00    +0.166 HD
ENDROOT
BRANCH   8  15
ATOM     15  C   UNL     1      16.074   4.532  26.360  0.00  0.00    -0.018 C 
ATOM     16  C   UNL     1      15.371   5.586  27.200  0.00  0.00    +0.046 C 
ATOM     17  C   UNL     1      17.426   4.400  26.427  0.00  0.00    -0.014 C 
BRANCH  17  18
ATOM     18  C   UNL     1      18.234   5.307  27.342  0.00  0.00    +0.043 C 
ATOM     19  C   UNL     1      19.184   6.127  26.820  0.00  0.00    +0.183 C 
BRANCH  19  20
ATOM     20  O   UNL     1      19.939   6.973  27.674  0.00  0.00    -0.514 OA
ATOM     21  H   UNL     1      20.481   7.646  27.308  0.00  0.00    +0.291 HD
ENDBRANCH  19  20
ENDBRANCH  17  18
BRANCH  17  22
ATOM     22  C   UNL     1      18.129   3.347  25.587  0.00  0.00    +0.191 C 
BRANCH  22  23
ATOM     23  O   UNL     1      18.476   3.900  24.326  0.00  0.00    -0.390 OA
ATOM     24  H   UNL     1      18.336   3.237  23.632  0.00  0.00    +0.210 HD
ENDBRANCH  22  23
ENDBRANCH  17  22
ENDBRANCH   8  15
TORSDOF 5
ENDMDL
MODEL 3
REMARK VINA RESULT:      -5.0     49.714     51.624
REMARK  Name = 
REMARK  6 active torsions:
REMARK  status: ('A' for Active; 'I' for Inactive)
REMARK    1  A    between atoms: C_8  and  C_9
REMARK    2  A    between atoms: C_9  and  C_10
REMARK    3  A    between atoms: C_11  and  C_12
REMARK    4  A    between atoms: C_11  and  C_15
REMARK    5  A    between atoms: C_13  and  O_14
REMARK    6  A    between atoms: C_15  and  O_16
REMARK                            x       y       z     vdW  Elec       q    Type
REMARK                         _______ _______ _______ _____ _____    ______ ____
ROOT
ATOM      1  C   UNL     1      -5.363   7.415  15.144  0.00  0.00    +0.010 A 
ATOM      2  C   UNL     1      -4.870   6.878  16.386  0.00  0.00    +0.001 A 
ATOM      3  C   UNL     1      -4.589   5.470  16.501  0.00  0.00    +0.002 A 
ATOM      4  C   UNL     1      -4.097   4.933  17.743  0.00  0.00    +0.026 A 
ATOM      5  C   UNL     1      -3.816   3.525  17.857  0.00  0.00    +0.048 A 
ATOM      6  N   UNL     1      -3.340   3.005  19.059  0.00  0.00    -0.352 N 
ATOM      7  C   UNL     1      -3.068   1.644  19.171  0.00  0.00    +0.073 A 
ATOM      8  C   UNL     1      -2.576   1.107  20.412  0.00  0.00    +0.091 A 
ATOM      9  N   UNL     1      -2.305  -0.254  20.523  0.00  0.00    -0.253 NA
ATOM     10  C   UNL     1      -1.828  -0.774  21.725  0.00  0.00    +0.112 A 
ATOM     11  C   UNL     1      -1.548  -2.182  21.839  0.00  0.00    +0.030 A 
ATOM     12  C   UNL     1      -3.281   0.773  18.042  0.00  0.00    +0.011 A 
ATOM     13  C   UNL     1      -4.029   2.654  16.730  0.00  0.00    +0.008 A 
ATOM     14  H   UNL     1      -3.195   3.601  19.830  0.00  0.00    +0.166 HD
ENDROOT
BRANCH   8  15
ATOM     15  C   UNL     1      -2.352   2.026  21.602  0.00  0.00    -0.018 C 
ATOM     16  C   UNL     1      -1.005   2.702  21.797  0.00  0.00    +0.046 C 
ATOM     17  C   UNL     1      -3.356   2.243  22.493  0.00  0.00    -0.014 C 
BRANCH  17  18
ATOM     18  C   UNL     1      -3.132   3.162  23.683  0.00  0.00    +0.043 C 
ATOM     19  C   UNL     1      -4.187   3.800  24.257  0.00  0.00    +0.183 C 
BRANCH  19  20
ATOM     20  O   UNL     1      -3.978   4.659  25.368  0.00  0.00    -0.514 OA
ATOM     21  H   UNL     1      -4.596   4.672  26.073  0.00  0.00    +0.291 HD
ENDBRANCH  19  20
ENDBRANCH  17  18
BRANCH  17  22
ATOM     22  C   UNL     1      -4.704   1.566  22.299  0.00  0.00    +0.191 C 
BRANCH  22  23
ATOM     23  O   UNL     1      -5.508   2.352  21.432  0.00  0.00    -0.390 OA
ATOM     24  H   UNL     1      -6.100   2.911  21.958  0.00  0.00    +0.210 HD
ENDBRANCH  22  23
ENDBRANCH  17  22
ENDBRANCH   8  15
TORSDOF 5
ENDMDL
MODEL 4
REMARK VINA RESULT:      -5.0     16.672     18.526
REMARK  Name = 
REMARK  6 active torsions:
REMARK  status: ('A' for Active; 'I' for Inactive)
REMARK    1  A    between atoms: C_8  and  C_9
REMARK    2  A    between atoms: C_9  and  C_10
REMARK    3  A    between atoms: C_11  and  C_12
REMARK    4  A    between atoms: C_11  and  C_15
REMARK    5  A    between atoms: C_13  and  O_14
REMARK    6  A    between atoms: C_15  and  O_16
REMARK                            x       y       z     vdW  Elec       q    Type
REMARK                         _______ _______ _______ _____ _____    ______ ____
ROOT
ATOM      1  C   UNL     1      34.935  20.786  26.444  0.00  0.00    +0.010 A 
ATOM      2  C   UNL     1      35.099  19.388  26.748  0.00  0.00    +0.001 A 
ATOM      3  C   UNL     1      34.046  18.669  27.417  0.00  0.00    +0.002 A 
ATOM      4  C   UNL     1      34.209  17.270  27.721  0.00  0.00    +0.026 A 
ATOM      5  C   UNL     1      33.156  16.551  28.390  0.00  0.00    +0.048 A 
ATOM      6  N   UNL     1      33.314  15.199  28.684  0.00  0.00    -0.352 N 
ATOM      7  C   UNL     1      32.296  14.503  29.331  0.00  0.00    +0.073 A 
ATOM      8  C   UNL     1      32.459  13.105  29.635  0.00  0.00    +0.091 A 
ATOM      9  N   UNL     1      31.441  12.409  30.282  0.00  0.00    -0.253 NA
ATOM     10  C   UNL     1      31.599  11.057  30.576  0.00  0.00    +0.112 A 
ATOM     11  C   UNL     1      30.546  10.338  31.245  0.00  0.00    +0.030 A 
ATOM     12  C   UNL     1      31.080  15.183  29.697  0.00  0.00    +0.011 A 
ATOM     13  C   UNL     1      31.940  17.230  28.756  0.00  0.00    +0.008 A 
ATOM     14  H   UNL     1      34.146  14.735  28.433  0.00  0.00    +0.166 HD
ENDROOT
BRANCH   8  15
ATOM     15  C   UNL     1      33.742  12.388  29.248  0.00  0.00    -0.018 C 
ATOM     16  C   UNL     1      33.834  11.656  27.919  0.00  0.00    +0.046 C 
ATOM     17  C   UNL     1      34.809  12.401  30.092  0.00  0.00    -0.014 C 
BRANCH  17  18
ATOM     18  C   UNL     1      36.093  11.684  29.706  0.00  0.00    +0.043 C 
ATOM     19  C   UNL     1      36.543  10.644  30.457  0.00  0.00    +0.183 C 
BRANCH  19  20
ATOM     20  O   UNL     1      37.742   9.974  30.097  0.00  0.00    -0.514 OA
ATOM     21  H   UNL     1      38.229   9.503  30.745  0.00  0.00    +0.291 HD
ENDBRANCH  19  20
ENDBRANCH  17  18
BRANCH  17  22
ATOM     22  C   UNL     1      34.718  13.132  31.422  0.00  0.00    +0.191 C 
BRANCH  22  23
ATOM     23  O   UNL     1      35.212  14.455  31.270  0.00  0.00    -0.390 OA
ATOM     24  H   UNL     1      35.506  14.588  30.355  0.00  0.00    +0.210 HD
ENDBRANCH  22  23
ENDBRANCH  17  22
ENDBRANCH   8  15
TORSDOF 5
ENDMDL
MODEL 5
REMARK VINA RESULT:      -4.9     46.507     48.605
REMARK  Name = 
REMARK  6 active torsions:
REMARK  status: ('A' for Active; 'I' for Inactive)
REMARK    1  A    between atoms: C_8  and  C_9
REMARK    2  A    between atoms: C_9  and  C_10
REMARK    3  A    between atoms: C_11  and  C_12
REMARK    4  A    between atoms: C_11  and  C_15
REMARK    5  A    between atoms: C_13  and  O_14
REMARK    6  A    between atoms: C_15  and  O_16
REMARK                            x       y       z     vdW  Elec       q    Type
REMARK                         _______ _______ _______ _____ _____    ______ ____
ROOT
ATOM      1  C   UNL     1      -1.206  12.873   0.280  0.00  0.00    +0.010 A 
ATOM      2  C   UNL     1      -0.060  12.004   0.203  0.00  0.00    +0.001 A 
ATOM      3  C   UNL     1       0.105  11.128  -0.927  0.00  0.00    +0.002 A 
ATOM      4  C   UNL     1       1.251  10.259  -1.004  0.00  0.00    +0.026 A 
ATOM      5  C   UNL     1       1.416   9.383  -2.135  0.00  0.00    +0.048 A 
ATOM      6  N   UNL     1       2.524   8.542  -2.209  0.00  0.00    -0.352 N 
ATOM      7  C   UNL     1       2.684   7.694  -3.302  0.00  0.00    +0.073 A 
ATOM      8  C   UNL     1       3.830   6.826  -3.379  0.00  0.00    +0.091 A 
ATOM      9  N   UNL     1       3.989   5.978  -4.472  0.00  0.00    -0.253 NA
ATOM     10  C   UNL     1       5.098   5.138  -4.546  0.00  0.00    +0.112 A 
ATOM     11  C   UNL     1       5.262   4.261  -5.677  0.00  0.00    +0.030 A 
ATOM     12  C   UNL     1       1.702   7.687  -4.356  0.00  0.00    +0.011 A 
ATOM     13  C   UNL     1       0.434   9.375  -3.189  0.00  0.00    +0.008 A 
ATOM     14  H   UNL     1       3.195   8.548  -1.488  0.00  0.00    +0.166 HD
ENDROOT
BRANCH   8  15
ATOM     15  C   UNL     1       4.866   6.834  -2.267  0.00  0.00    -0.018 C 
ATOM     16  C   UNL     1       4.768   5.830  -1.130  0.00  0.00    +0.046 C 
ATOM     17  C   UNL     1       5.880   7.740  -2.288  0.00  0.00    -0.014 C 
BRANCH  17  18
ATOM     18  C   UNL     1       6.916   7.748  -1.176  0.00  0.00    +0.043 C 
ATOM     19  C   UNL     1       8.087   8.419  -1.342  0.00  0.00    +0.183 C 
BRANCH  19  20
ATOM     20  O   UNL     1       9.055   8.427  -0.303  0.00  0.00    -0.514 OA
ATOM     21  H   UNL     1       8.780   8.433   0.593  0.00  0.00    +0.291 HD
ENDBRANCH  19  20
ENDBRANCH  17  18
BRANCH  17  22
ATOM     22  C   UNL     1       5.978   8.744  -3.425  0.00  0.00    +0.191 C 
BRANCH  22  23
ATOM     23  O   UNL     1       6.595   8.130  -4.548  0.00  0.00    -0.390 OA
ATOM     24  H   UNL     1       5.990   7.477  -4.933  0.00  0.00    +0.210 HD
ENDBRANCH  22  23
ENDBRANCH  17  22
ENDBRANCH   8  15
TORSDOF 5
ENDMDL
MODEL 6
REMARK VINA RESULT:      -4.9     41.754     44.023
REMARK  Name = 
REMARK  6 active torsions:
REMARK  status: ('A' for Active; 'I' for Inactive)
REMARK    1  A    between atoms: C_8  and  C_9
REMARK    2  A    between atoms: C_9  and  C_10
REMARK    3  A    between atoms: C_11  and  C_12
REMARK    4  A    between atoms: C_11  and  C_15
REMARK    5  A    between atoms: C_13  and  O_14
REMARK    6  A    between atoms: C_15  and  O_16
REMARK                            x       y       z     vdW  Elec       q    Type
REMARK                         _______ _______ _______ _____ _____    ______ ____
ROOT
ATOM      1  C   UNL     1      13.410  -3.946  14.750  0.00  0.00    +0.010 A 
ATOM      2  C   UNL     1      12.013  -4.029  15.092  0.00  0.00    +0.001 A 
ATOM      3  C   UNL     1      11.017  -4.035  14.052  0.00  0.00    +0.002 A 
ATOM      4  C   UNL     1       9.620  -4.118  14.394  0.00  0.00    +0.026 A 
ATOM      5  C   UNL     1       8.624  -4.124  13.355  0.00  0.00    +0.048 A 
ATOM      6  N   UNL     1       7.273  -4.205  13.685  0.00  0.00    -0.352 N 
ATOM      7  C   UNL     1       6.308  -4.211  12.680  0.00  0.00    +0.073 A 
ATOM      8  C   UNL     1       4.912  -4.294  13.022  0.00  0.00    +0.091 A 
ATOM      9  N   UNL     1       3.948  -4.300  12.017  0.00  0.00    -0.253 NA
ATOM     10  C   UNL     1       2.598  -4.380  12.348  0.00  0.00    +0.112 A 
ATOM     11  C   UNL     1       1.601  -4.387  11.309  0.00  0.00    +0.030 A 
ATOM     12  C   UNL     1       6.709  -4.134  11.299  0.00  0.00    +0.011 A 
ATOM     13  C   UNL     1       9.023  -4.048  11.973  0.00  0.00    +0.008 A 
ATOM     14  H   UNL     1       7.000  -4.257  14.630  0.00  0.00    +0.166 HD
ENDROOT
BRANCH   8  15
ATOM     15  C   UNL     1       4.490  -4.375  14.480  0.00  0.00    -0.018 C 
ATOM     16  C   UNL     1       4.308  -5.730  15.145  0.00  0.00    +0.046 C 
ATOM     17  C   UNL     1       4.276  -3.235  15.191  0.00  0.00    -0.014 C 
BRANCH  17  18
ATOM     18  C   UNL     1       3.854  -3.316  16.649  0.00  0.00    +0.043 C 
ATOM     19  C   UNL     1       4.738  -2.996  17.631  0.00  0.00    +0.183 C 
BRANCH  19  20
ATOM     20  O   UNL     1       4.344  -3.072  18.993  0.00  0.00    -0.514 OA
ATOM     21  H   UNL     1       4.236  -2.287  19.494  0.00  0.00    +0.291 HD
ENDBRANCH  19  20
ENDBRANCH  17  18
BRANCH  17  22
ATOM     22  C   UNL     1       4.458  -1.880  14.527  0.00  0.00    +0.191 C 
BRANCH  22  23
ATOM     23  O   UNL     1       5.785  -1.422  14.740  0.00  0.00    -0.390 OA
ATOM     24  H   UNL     1       5.764  -0.515  15.083  0.00  0.00    +0.210 HD
ENDBRANCH  22  23
ENDBRANCH  17  22
ENDBRANCH   8  15
TORSDOF 5
ENDMDL
MODEL 7
REMARK VINA RESULT:      -4.8     13.381     16.299
REMARK  Name = 
REMARK  6 active torsions:
REMARK  status: ('A' for Active; 'I' for Inactive)
REMARK    1  A    between atoms: C_8  and  C_9
REMARK    2  A    between atoms: C_9  and  C_10
REMARK    3  A    between atoms: C_11  and  C_12
REMARK    4  A    between atoms: C_11  and  C_15
REMARK    5  A    between atoms: C_13  and  O_14
REMARK    6  A    between atoms: C_15  and  O_16
REMARK                            x       y       z     vdW  Elec       q    Type
REMARK                         _______ _______ _______ _____ _____    ______ ____
ROOT
ATOM      1  C   UNL     1      33.330  18.640  12.567  0.00  0.00    +0.010 A 
ATOM      2  C   UNL     1      34.175  17.557  12.136  0.00  0.00    +0.001 A 
ATOM      3  C   UNL     1      33.883  16.859  10.911  0.00  0.00    +0.002 A 
ATOM      4  C   UNL     1      34.728  15.776  10.480  0.00  0.00    +0.026 A 
ATOM      5  C   UNL     1      34.435  15.078   9.254  0.00  0.00    +0.048 A 
ATOM      6  N   UNL     1      35.253  14.030   8.837  0.00  0.00    -0.352 N 
ATOM      7  C   UNL     1      34.971  13.355   7.652  0.00  0.00    +0.073 A 
ATOM      8  C   UNL     1      35.816  12.272   7.221  0.00  0.00    +0.091 A 
ATOM      9  N   UNL     1      35.533  11.598   6.036  0.00  0.00    -0.253 NA
ATOM     10  C   UNL     1      36.351  10.550   5.619  0.00  0.00    +0.112 A 
ATOM     11  C   UNL     1      36.058   9.852   4.394  0.00  0.00    +0.030 A 
ATOM     12  C   UNL     1      33.832  13.741   6.858  0.00  0.00    +0.011 A 
ATOM     13  C   UNL     1      33.298  15.464   8.460  0.00  0.00    +0.008 A 
ATOM     14  H   UNL     1      36.031  13.767   9.381  0.00  0.00    +0.166 HD
ENDROOT
BRANCH   8  15
ATOM     15  C   UNL     1      37.017  11.865   8.059  0.00  0.00    -0.018 C 
ATOM     16  C   UNL     1      36.885  10.751   9.085  0.00  0.00    +0.046 C 
ATOM     17  C   UNL     1      38.209  12.498   7.891  0.00  0.00    -0.014 C 
BRANCH  17  18
ATOM     18  C   UNL     1      39.410  12.091   8.730  0.00  0.00    +0.043 C 
ATOM     19  C   UNL     1      40.663  12.459   8.347  0.00  0.00    +0.183 C 
BRANCH  19  20
ATOM     20  O   UNL     1      41.784  12.079   9.130  0.00  0.00    -0.514 OA
ATOM     21  H   UNL     1      42.163  12.688   9.734  0.00  0.00    +0.291 HD
ENDBRANCH  19  20
ENDBRANCH  17  18
BRANCH  17  22
ATOM     22  C   UNL     1      38.341  13.612   6.866  0.00  0.00    +0.191 C 
BRANCH  22  23
ATOM     23  O   UNL     1      38.120  14.865   7.496  0.00  0.00    -0.390 OA
ATOM     24  H   UNL     1      37.532  15.405   6.945  0.00  0.00    +0.210 HD
ENDBRANCH  22  23
ENDBRANCH  17  22
ENDBRANCH   8  15
TORSDOF 5
ENDMDL
MODEL 8
REMARK VINA RESULT:      -4.8     37.084     39.093
REMARK  Name = 
REMARK  6 active torsions:
REMARK  status: ('A' for Active; 'I' for Inactive)
REMARK    1  A    between atoms: C_8  and  C_9
REMARK    2  A    between atoms: C_9  and  C_10
REMARK    3  A    between atoms: C_11  and  C_12
REMARK    4  A    between atoms: C_11  and  C_15
REMARK    5  A    between atoms: C_13  and  O_14
REMARK    6  A    between atoms: C_15  and  O_16
REMARK                            x       y       z     vdW  Elec       q    Type
REMARK                         _______ _______ _______ _____ _____    ______ ____
ROOT
ATOM      1  C   UNL     1      13.827 -12.946  14.426  0.00  0.00    +0.010 A 
ATOM      2  C   UNL     1      13.535 -11.546  14.264  0.00  0.00    +0.001 A 
ATOM      3  C   UNL     1      13.714 -10.641  15.370  0.00  0.00    +0.002 A 
ATOM      4  C   UNL     1      13.422  -9.240  15.209  0.00  0.00    +0.026 A 
ATOM      5  C   UNL     1      13.602  -8.335  16.315  0.00  0.00    +0.048 A 
ATOM      6  N   UNL     1      13.319  -6.980  16.159  0.00  0.00    -0.352 N 
ATOM      7  C   UNL     1      13.492  -6.104  17.228  0.00  0.00    +0.073 A 
ATOM      8  C   UNL     1      13.200  -4.703  17.066  0.00  0.00    +0.091 A 
ATOM      9  N   UNL     1      13.373  -3.828  18.135  0.00  0.00    -0.253 NA
ATOM     10  C   UNL     1      13.091  -2.473  17.979  0.00  0.00    +0.112 A 
ATOM     11  C   UNL     1      13.270  -1.568  19.085  0.00  0.00    +0.030 A 
ATOM     12  C   UNL     1      13.964  -6.601  18.495  0.00  0.00    +0.011 A 
ATOM     13  C   UNL     1      14.074  -8.831  17.582  0.00  0.00    +0.008 A 
ATOM     14  H   UNL     1      12.996  -6.641  15.292  0.00  0.00    +0.166 HD
ENDROOT
BRANCH   8  15
ATOM     15  C   UNL     1      12.702  -4.180  15.729  0.00  0.00    -0.018 C 
ATOM     16  C   UNL     1      13.691  -3.645  14.706  0.00  0.00    +0.046 C 
ATOM     17  C   UNL     1      11.371  -4.190  15.447  0.00  0.00    -0.014 C 
BRANCH  17  18
ATOM     18  C   UNL     1      10.873  -3.667  14.110  0.00  0.00    +0.043 C 
ATOM     19  C   UNL     1       9.810  -4.257  13.502  0.00  0.00    +0.183 C 
BRANCH  19  20
ATOM     20  O   UNL     1       9.344  -3.769  12.253  0.00  0.00    -0.514 OA
ATOM     21  H   UNL     1       8.536  -3.296  12.206  0.00  0.00    +0.291 HD
ENDBRANCH  19  20
ENDBRANCH  17  18
BRANCH  17  22
ATOM     22  C   UNL     1      10.382  -4.725  16.470  0.00  0.00    +0.191 C 
BRANCH  22  23
ATOM     23  O   UNL     1      10.207  -6.120  16.276  0.00  0.00    -0.390 OA
ATOM     24  H   UNL     1      10.813  -6.430  15.585  0.00  0.00    +0.210 HD
ENDBRANCH  22  23
ENDBRANCH  17  22
ENDBRANCH   8  15
TORSDOF 5
ENDMDL
MODEL 9
REMARK VINA RESULT:      -4.8     45.264     47.245
REMARK  Name = 
REMARK  6 active torsions:
REMARK  status: ('A' for Active; 'I' for Inactive)
REMARK    1  A    between atoms: C_8  and  C_9
REMARK    2  A    between atoms: C_9  and  C_10
REMARK    3  A    between atoms: C_11  and  C_12
REMARK    4  A    between atoms: C_11  and  C_15
REMARK    5  A    between atoms: C_13  and  O_14
REMARK    6  A    between atoms: C_15  and  O_16
REMARK                            x       y       z     vdW  Elec       q    Type
REMARK                         _______ _______ _______ _____ _____    ______ ____
ROOT
ATOM      1  C   UNL     1      -0.147  13.972  -3.713  0.00  0.00    +0.010 A 
ATOM      2  C   UNL     1       0.637  12.900  -3.154  0.00  0.00    +0.001 A 
ATOM      3  C   UNL     1       2.028  12.768  -3.502  0.00  0.00    +0.002 A 
ATOM      4  C   UNL     1       2.811  11.696  -2.943  0.00  0.00    +0.026 A 
ATOM      5  C   UNL     1       4.202  11.564  -3.290  0.00  0.00    +0.048 A 
ATOM      6  N   UNL     1       4.960  10.528  -2.750  0.00  0.00    -0.352 N 
ATOM      7  C   UNL     1       6.305  10.399  -3.085  0.00  0.00    +0.073 A 
ATOM      8  C   UNL     1       7.088   9.328  -2.526  0.00  0.00    +0.091 A 
ATOM      9  N   UNL     1       8.433   9.200  -2.863  0.00  0.00    -0.253 NA
ATOM     10  C   UNL     1       9.191   8.163  -2.322  0.00  0.00    +0.112 A 
ATOM     11  C   UNL     1      10.582   8.031  -2.669  0.00  0.00    +0.030 A 
ATOM     12  C   UNL     1       6.913  11.339  -3.992  0.00  0.00    +0.011 A 
ATOM     13  C   UNL     1       4.810  12.503  -4.197  0.00  0.00    +0.008 A 
ATOM     14  H   UNL     1       4.543   9.885  -2.130  0.00  0.00    +0.166 HD
ENDROOT
BRANCH   8  15
ATOM     15  C   UNL     1       6.446   8.336  -1.569  0.00  0.00    -0.018 C 
ATOM     16  C   UNL     1       6.560   8.547  -0.068  0.00  0.00    +0.046 C 
ATOM     17  C   UNL     1       5.770   7.261  -2.056  0.00  0.00    -0.014 C 
BRANCH  17  18
ATOM     18  C   UNL     1       5.128   6.270  -1.099  0.00  0.00    +0.043 C 
ATOM     19  C   UNL     1       4.432   5.208  -1.586  0.00  0.00    +0.183 C 
BRANCH  19  20
ATOM     20  O   UNL     1       3.833   4.282  -0.693  0.00  0.00    -0.514 OA
ATOM     21  H   UNL     1       3.480   4.580   0.124  0.00  0.00    +0.291 HD
ENDBRANCH  19  20
ENDBRANCH  17  18
BRANCH  17  22
ATOM     22  C   UNL     1       5.657   7.051  -3.557  0.00  0.00    +0.191 C 
BRANCH  22  23
ATOM     23  O   UNL     1       4.459   7.650  -4.031  0.00  0.00    -0.390 OA
ATOM     24  H   UNL     1       3.746   7.499  -3.391  0.00  0.00    +0.210 HD
ENDBRANCH  22  23
ENDBRANCH  17  22
ENDBRANCH   8  15
TORSDOF 5
ENDMDL
