MODEL 1
REMARK VINA RESULT:      -7.2      0.000      0.000
REMARK  Name = 
REMARK  17 active torsions:
REMARK  status: ('A' for Active; 'I' for Inactive)
REMARK    1  A    between atoms: C_1  and  O_2
REMARK    2  A    between atoms: O_2  and  C_3
REMARK    3  A    between atoms: C_5  and  C_34
REMARK    4  A    between atoms: C_10  and  C_25
REMARK    5  A    between atoms: C_11  and  C_12
REMARK    6  A    between atoms: N_14  and  C_15
REMARK    7  A    between atoms: C_15  and  C_16
REMARK    8  A    between atoms: C_16  and  C_18
REMARK    9  A    between atoms: C_21  and  O_24
REMARK   10  A    between atoms: C_27  and  O_32
REMARK   11  A    between atoms: C_28  and  O_31
REMARK   12  A    between atoms: O_32  and  C_33
REMARK   13  A    between atoms: C_35  and  C_36
REMARK   14  A    between atoms: N_38  and  C_39
REMARK   15  A    between atoms: C_39  and  C_40
REMARK   16  A    between atoms: C_40  and  C_41
REMARK   17  A    between atoms: C_44  and  O_47
REMARK                            x       y       z     vdW  Elec       q    Type
REMARK                         _______ _______ _______ _____ _____    ______ ____
ROOT
ATOM      1  C   UNL     1      32.281  13.251   6.836  0.00  0.00    +0.162 A 
ATOM      2  C   UNL     1      31.407  14.203   7.473  0.00  0.00    +0.057 A 
ATOM      3  C   UNL     1      31.947  15.179   8.386  0.00  0.00    -0.021 A 
ATOM      4  C   UNL     1      33.361  15.203   8.660  0.00  0.00    +0.016 A 
ATOM      5  C   UNL     1      34.234  14.251   8.024  0.00  0.00    +0.014 A 
ATOM      6  C   UNL     1      38.212  13.136   9.445  0.00  0.00    +0.167 A 
ATOM      7  O   UNL     1      37.351  14.074  10.072  0.00  0.00    -0.479 OA
ATOM      8  C   UNL     1      35.956  14.050   9.800  0.00  0.00    +0.220 C 
ATOM      9  C   UNL     1      35.726  14.276   8.316  0.00  0.00    +0.153 C 
ENDROOT
BRANCH   8  10
ATOM     10  C   UNL     1      35.267  15.149  10.593  0.00  0.00    -0.003 A 
ATOM     11  C   UNL     1      35.654  16.524  10.405  0.00  0.00    +0.056 A 
ATOM     12  C   UNL     1      35.002  17.565  11.156  0.00  0.00    +0.162 A 
ATOM     13  C   UNL     1      33.961  17.233  12.094  0.00  0.00    +0.158 A 
ATOM     14  C   UNL     1      33.308  18.273  12.845  0.00  0.00    +0.049 A 
ATOM     15  C   UNL     1      34.226  14.817  11.531  0.00  0.00    +0.011 A 
BRANCH  13  16
ATOM     16  O   UNL     1      33.579  15.877  12.279  0.00  0.00    -0.503 OA
ATOM     17  H   UNL     1      33.191  15.606  13.088  0.00  0.00    +0.292 HD
ENDBRANCH  13  16
BRANCH  12  18
ATOM     18  O   UNL     1      35.383  18.920  10.971  0.00  0.00    -0.491 OA
ATOM     19  C   UNL     1      35.719  19.393   9.675  0.00  0.00    +0.277 C 
ENDBRANCH  12  18
ENDBRANCH   8  10
BRANCH   9  20
ATOM     20  C   UNL     1      36.415  13.178   7.522  0.00  0.00    +0.225 C 
ATOM     21  O   UNL     1      37.276  13.479   6.637  0.00  0.00    -0.275 OA
ATOM     22  N   UNL     1      36.085  11.769   7.777  0.00  0.00    -0.307 N 
ATOM     23  H   UNL     1      35.417  11.536   8.463  0.00  0.00    +0.149 HD
BRANCH  22  24
ATOM     24  C   UNL     1      36.751  10.707   7.009  0.00  0.00    +0.184 C 
BRANCH  24  25
ATOM     25  C   UNL     1      36.113  10.600   5.634  0.00  0.00    +0.180 C 
ATOM     26  O   UNL     1      34.853  10.721   5.506  0.00  0.00    -0.290 OA
BRANCH  25  27
ATOM     27  C   UNL     1      36.980  10.349   4.411  0.00  0.00    +0.019 A 
ATOM     28  C   UNL     1      37.744   9.132   4.308  0.00  0.00    +0.015 A 
ATOM     29  C   UNL     1      38.566   8.894   3.149  0.00  0.00    +0.046 A 
ATOM     30  C   UNL     1      39.330   7.678   3.047  0.00  0.00    +0.117 A 
ATOM     31  C   UNL     1      39.272   6.700   4.102  0.00  0.00    +0.046 A 
ATOM     32  C   UNL     1      37.038  11.327   3.356  0.00  0.00    +0.015 A 
BRANCH  30  33
ATOM     33  O   UNL     1      40.140   7.443   1.904  0.00  0.00    -0.507 OA
ATOM     34  H   UNL     1      40.430   8.163   1.378  0.00  0.00    +0.292 HD
ENDBRANCH  30  33
ENDBRANCH  25  27
ENDBRANCH  24  25
ENDBRANCH  22  24
ENDBRANCH   9  20
BRANCH   1  36
ATOM     35  C   UNL     1      30.378  12.340   5.573  0.00  0.00    +0.277 C 
ATOM     36  O   UNL     1      31.750  12.290   5.937  0.00  0.00    -0.491 OA
ENDBRANCH   1  36
BRANCH   3  37
ATOM     37  C   UNL     1      31.024  16.183   9.058  0.00  0.00    +0.013 C 
ATOM     38  C   UNL     1      31.521  17.363   9.515  0.00  0.00    +0.068 C 
BRANCH  38  39
ATOM     39  C   UNL     1      30.599  18.367  10.187  0.00  0.00    +0.237 C 
ATOM     40  O   UNL     1      30.439  19.521   9.680  0.00  0.00    -0.271 OA
ATOM     41  N   UNL     1      29.893  18.003  11.424  0.00  0.00    -0.312 N 
ATOM     42  H   UNL     1      30.016  17.109  11.817  0.00  0.00    +0.149 HD
BRANCH  41  43
ATOM     43  C   UNL     1      29.000  18.974  12.074  0.00  0.00    +0.109 C 
BRANCH  43  44
ATOM     44  C   UNL     1      29.724  19.627  13.240  0.00  0.00    +0.054 C 
BRANCH  44  45
ATOM     45  C   UNL     1      28.866  19.526  14.490  0.00  0.00    -0.046 A 
ATOM     46  C   UNL     1      27.434  19.428  14.374  0.00  0.00    +0.007 A 
ATOM     47  C   UNL     1      26.621  19.333  15.559  0.00  0.00    +0.045 A 
ATOM     48  C   UNL     1      25.189  19.234  15.443  0.00  0.00    +0.117 A 
ATOM     49  C   UNL     1      24.570  19.233  14.143  0.00  0.00    +0.045 A 
ATOM     50  C   UNL     1      29.485  19.528  15.790  0.00  0.00    +0.007 A 
BRANCH  48  51
ATOM     51  O   UNL     1      24.387  19.140  16.611  0.00  0.00    -0.507 OA
ATOM     52  H   UNL     1      24.373  19.845  17.228  0.00  0.00    +0.292 HD
ENDBRANCH  48  51
ENDBRANCH  44  45
ENDBRANCH  43  44
ENDBRANCH  41  43
ENDBRANCH  38  39
ENDBRANCH   3  37
TORSDOF 15
ENDMDL
MODEL 2
REMARK VINA RESULT:      -6.9      3.899     12.599
REMARK  Name = 
REMARK  17 active torsions:
REMARK  status: ('A' for Active; 'I' for Inactive)
REMARK    1  A    between atoms: C_1  and  O_2
REMARK    2  A    between atoms: O_2  and  C_3
REMARK    3  A    between atoms: C_5  and  C_34
REMARK    4  A    between atoms: C_10  and  C_25
REMARK    5  A    between atoms: C_11  and  C_12
REMARK    6  A    between atoms: N_14  and  C_15
REMARK    7  A    between atoms: C_15  and  C_16
REMARK    8  A    between atoms: C_16  and  C_18
REMARK    9  A    between atoms: C_21  and  O_24
REMARK   10  A    between atoms: C_27  and  O_32
REMARK   11  A    between atoms: C_28  and  O_31
REMARK   12  A    between atoms: O_32  and  C_33
REMARK   13  A    between atoms: C_35  and  C_36
REMARK   14  A    between atoms: N_38  and  C_39
REMARK   15  A    between atoms: C_39  and  C_40
REMARK   16  A    between atoms: C_40  and  C_41
REMARK   17  A    between atoms: C_44  and  O_47
REMARK                            x       y       z     vdW  Elec       q    Type
REMARK                         _______ _______ _______ _____ _____    ______ ____
ROOT
ATOM      1  C   UNL     1      34.320  12.626   6.453  0.00  0.00    +0.162 A 
ATOM      2  C   UNL     1      35.069  11.559   5.843  0.00  0.00    +0.057 A 
ATOM      3  C   UNL     1      36.430  11.309   6.249  0.00  0.00    -0.021 A 
ATOM      4  C   UNL     1      37.039  12.127   7.266  0.00  0.00    +0.016 A 
ATOM      5  C   UNL     1      36.289  13.194   7.877  0.00  0.00    +0.014 A 
ATOM      6  C   UNL     1      38.020  16.610   9.981  0.00  0.00    +0.167 A 
ATOM      7  O   UNL     1      38.759  15.557   9.378  0.00  0.00    -0.479 OA
ATOM      8  C   UNL     1      38.157  14.751   8.375  0.00  0.00    +0.220 C 
ATOM      9  C   UNL     1      36.933  14.058   8.949  0.00  0.00    +0.153 C 
ENDROOT
BRANCH   8  10
ATOM     10  C   UNL     1      39.154  13.706   7.900  0.00  0.00    -0.003 A 
ATOM     11  C   UNL     1      39.649  13.745   6.548  0.00  0.00    +0.056 A 
ATOM     12  C   UNL     1      40.593  12.755   6.097  0.00  0.00    +0.162 A 
ATOM     13  C   UNL     1      41.043  11.726   6.998  0.00  0.00    +0.158 A 
ATOM     14  C   UNL     1      41.987  10.736   6.548  0.00  0.00    +0.049 A 
ATOM     15  C   UNL     1      39.604  12.676   8.801  0.00  0.00    +0.011 A 
BRANCH  13  16
ATOM     16  O   UNL     1      40.555  11.687   8.332  0.00  0.00    -0.503 OA
ATOM     17  H   UNL     1      39.668  11.929   8.513  0.00  0.00    +0.292 HD
ENDBRANCH  13  16
BRANCH  12  18
ATOM     18  O   UNL     1      41.082  12.794   4.765  0.00  0.00    -0.491 OA
ATOM     19  C   UNL     1      41.076  14.016   4.041  0.00  0.00    +0.277 C 
ENDBRANCH  12  18
ENDBRANCH   8  10
BRANCH   9  20
ATOM     20  C   UNL     1      35.936  15.101   9.425  0.00  0.00    +0.225 C 
ATOM     21  O   UNL     1      35.452  15.940   8.602  0.00  0.00    -0.275 OA
ATOM     22  N   UNL     1      35.534  15.142  10.838  0.00  0.00    -0.307 N 
ATOM     23  H   UNL     1      35.909  14.493  11.476  0.00  0.00    +0.149 HD
BRANCH  22  24
ATOM     24  C   UNL     1      34.570  16.153  11.299  0.00  0.00    +0.184 C 
BRANCH  24  25
ATOM     25  C   UNL     1      33.162  15.586  11.216  0.00  0.00    +0.180 C 
ATOM     26  O   UNL     1      32.793  14.679  12.028  0.00  0.00    -0.290 OA
BRANCH  25  27
ATOM     27  C   UNL     1      32.195  16.102  10.163  0.00  0.00    +0.019 A 
ATOM     28  C   UNL     1      31.421  15.174   9.379  0.00  0.00    +0.015 A 
ATOM     29  C   UNL     1      30.505  15.664   8.381  0.00  0.00    +0.046 A 
ATOM     30  C   UNL     1      29.730  14.736   7.598  0.00  0.00    +0.117 A 
ATOM     31  C   UNL     1      29.871  13.319   7.813  0.00  0.00    +0.046 A 
ATOM     32  C   UNL     1      32.055  17.519   9.948  0.00  0.00    +0.015 A 
BRANCH  30  33
ATOM     33  O   UNL     1      28.827  15.219   6.614  0.00  0.00    -0.507 OA
ATOM     34  H   UNL     1      29.007  15.080   5.704  0.00  0.00    +0.292 HD
ENDBRANCH  30  33
ENDBRANCH  25  27
ENDBRANCH  24  25
ENDBRANCH  22  24
ENDBRANCH   9  20
BRANCH   1  36
ATOM     35  C   UNL     1      32.606  14.158   5.581  0.00  0.00    +0.277 C 
ATOM     36  O   UNL     1      32.981  12.873   6.053  0.00  0.00    -0.491 OA
ENDBRANCH   1  36
BRANCH   3  37
ATOM     37  C   UNL     1      37.221  10.182   5.604  0.00  0.00    +0.013 C 
ATOM     38  C   UNL     1      38.295  10.467   4.820  0.00  0.00    +0.068 C 
BRANCH  38  39
ATOM     39  C   UNL     1      39.085   9.341   4.175  0.00  0.00    +0.237 C 
ATOM     40  O   UNL     1      40.140   9.601   3.517  0.00  0.00    -0.271 OA
ATOM     41  N   UNL     1      38.628   7.950   4.312  0.00  0.00    -0.312 N 
ATOM     42  H   UNL     1      37.811   7.748   4.822  0.00  0.00    +0.149 HD
BRANCH  41  43
ATOM     43  C   UNL     1      39.393   6.860   3.689  0.00  0.00    +0.109 C 
BRANCH  43  44
ATOM     44  C   UNL     1      39.592   5.740   4.696  0.00  0.00    +0.054 C 
BRANCH  44  45
ATOM     45  C   UNL     1      40.750   6.086   5.617  0.00  0.00    -0.046 A 
ATOM     46  C   UNL     1      41.942   5.277   5.610  0.00  0.00    +0.007 A 
ATOM     47  C   UNL     1      43.040   5.604   6.483  0.00  0.00    +0.045 A 
ATOM     48  C   UNL     1      44.232   4.797   6.476  0.00  0.00    +0.117 A 
ATOM     49  C   UNL     1      44.325   3.660   5.597  0.00  0.00    +0.045 A 
ATOM     50  C   UNL     1      40.657   7.222   6.496  0.00  0.00    +0.007 A 
BRANCH  48  51
ATOM     51  O   UNL     1      45.314   5.120   7.337  0.00  0.00    -0.507 OA
ATOM     52  H   UNL     1      45.732   5.955   7.269  0.00  0.00    +0.292 HD
ENDBRANCH  48  51
ENDBRANCH  44  45
ENDBRANCH  43  44
ENDBRANCH  41  43
ENDBRANCH  38  39
ENDBRANCH   3  37
TORSDOF 15
ENDMDL
MODEL 3
REMARK VINA RESULT:      -6.9      1.859      2.178
REMARK  Name = 
REMARK  17 active torsions:
REMARK  status: ('A' for Active; 'I' for Inactive)
REMARK    1  A    between atoms: C_1  and  O_2
REMARK    2  A    between atoms: O_2  and  C_3
REMARK    3  A    between atoms: C_5  and  C_34
REMARK    4  A    between atoms: C_10  and  C_25
REMARK    5  A    between atoms: C_11  and  C_12
REMARK    6  A    between atoms: N_14  and  C_15
REMARK    7  A    between atoms: C_15  and  C_16
REMARK    8  A    between atoms: C_16  and  C_18
REMARK    9  A    between atoms: C_21  and  O_24
REMARK   10  A    between atoms: C_27  and  O_32
REMARK   11  A    between atoms: C_28  and  O_31
REMARK   12  A    between atoms: O_32  and  C_33
REMARK   13  A    between atoms: C_35  and  C_36
REMARK   14  A    between atoms: N_38  and  C_39
REMARK   15  A    between atoms: C_39  and  C_40
REMARK   16  A    between atoms: C_40  and  C_41
REMARK   17  A    between atoms: C_44  and  O_47
REMARK                            x       y       z     vdW  Elec       q    Type
REMARK                         _______ _______ _______ _____ _____    ______ ____
ROOT
ATOM      1  C   UNL     1      32.477  13.332   6.707  0.00  0.00    +0.162 A 
ATOM      2  C   UNL     1      31.628  14.308   7.341  0.00  0.00    +0.057 A 
ATOM      3  C   UNL     1      32.183  15.235   8.295  0.00  0.00    -0.021 A 
ATOM      4  C   UNL     1      33.587  15.187   8.612  0.00  0.00    +0.016 A 
ATOM      5  C   UNL     1      34.436  14.211   7.979  0.00  0.00    +0.014 A 
ATOM      6  C   UNL     1      38.312  12.878   9.490  0.00  0.00    +0.167 A 
ATOM      7  O   UNL     1      37.475  13.840  10.115  0.00  0.00    -0.479 OA
ATOM      8  C   UNL     1      36.091  13.887   9.800  0.00  0.00    +0.220 C 
ATOM      9  C   UNL     1      35.917  14.159   8.316  0.00  0.00    +0.153 C 
ENDROOT
BRANCH   8  10
ATOM     10  C   UNL     1      35.427  14.998  10.600  0.00  0.00    -0.003 A 
ATOM     11  C   UNL     1      35.928  16.346  10.512  0.00  0.00    +0.056 A 
ATOM     12  C   UNL     1      35.301  17.398  11.269  0.00  0.00    +0.162 A 
ATOM     13  C   UNL     1      34.173  17.103  12.113  0.00  0.00    +0.158 A 
ATOM     14  C   UNL     1      33.544  18.155  12.871  0.00  0.00    +0.049 A 
ATOM     15  C   UNL     1      34.299  14.703  11.444  0.00  0.00    +0.011 A 
BRANCH  13  16
ATOM     16  O   UNL     1      33.679  15.774  12.200  0.00  0.00    -0.503 OA
ATOM     17  H   UNL     1      32.906  15.530  11.730  0.00  0.00    +0.292 HD
ENDBRANCH  13  16
BRANCH  12  18
ATOM     18  O   UNL     1      35.794  18.727  11.182  0.00  0.00    -0.491 OA
ATOM     19  C   UNL     1      37.058  19.053  11.740  0.00  0.00    +0.277 C 
ENDBRANCH  12  18
ENDBRANCH   8  10
BRANCH   9  20
ATOM     20  C   UNL     1      36.580  13.050   7.516  0.00  0.00    +0.225 C 
ATOM     21  O   UNL     1      37.530  13.323   6.717  0.00  0.00    -0.275 OA
ATOM     22  N   UNL     1      36.121  11.662   7.665  0.00  0.00    -0.307 N 
ATOM     23  H   UNL     1      35.385  11.450   8.283  0.00  0.00    +0.149 HD
BRANCH  22  24
ATOM     24  C   UNL     1      36.762  10.588   6.890  0.00  0.00    +0.184 C 
BRANCH  24  25
ATOM     25  C   UNL     1      36.158  10.541   5.495  0.00  0.00    +0.180 C 
ATOM     26  O   UNL     1      34.905  10.688   5.340  0.00  0.00    -0.290 OA
BRANCH  25  27
ATOM     27  C   UNL     1      37.053  10.317   4.287  0.00  0.00    +0.019 A 
ATOM     28  C   UNL     1      36.880   9.144   3.470  0.00  0.00    +0.015 A 
ATOM     29  C   UNL     1      37.728   8.932   2.326  0.00  0.00    +0.046 A 
ATOM     30  C   UNL     1      37.555   7.758   1.509  0.00  0.00    +0.117 A 
ATOM     31  C   UNL     1      36.535   6.797   1.836  0.00  0.00    +0.046 A 
ATOM     32  C   UNL     1      38.074  11.278   3.960  0.00  0.00    +0.015 A 
BRANCH  30  33
ATOM     33  O   UNL     1      38.392   7.549   0.381  0.00  0.00    -0.507 OA
ATOM     34  H   UNL     1      38.041   7.634  -0.485  0.00  0.00    +0.292 HD
ENDBRANCH  30  33
ENDBRANCH  25  27
ENDBRANCH  24  25
ENDBRANCH  22  24
ENDBRANCH   9  20
BRANCH   1  36
ATOM     35  C   UNL     1      30.543  12.452   5.469  0.00  0.00    +0.277 C 
ATOM     36  O   UNL     1      31.931  12.418   5.769  0.00  0.00    -0.491 OA
ENDBRANCH   1  36
BRANCH   3  37
ATOM     37  C   UNL     1      31.287  16.265   8.964  0.00  0.00    +0.013 C 
ATOM     38  C   UNL     1      29.935  16.137   8.895  0.00  0.00    +0.068 C 
BRANCH  38  39
ATOM     39  C   UNL     1      29.039  17.167   9.564  0.00  0.00    +0.237 C 
ATOM     40  O   UNL     1      27.950  17.516   9.011  0.00  0.00    -0.271 OA
ATOM     41  N   UNL     1      29.434  17.760  10.850  0.00  0.00    -0.312 N 
ATOM     42  H   UNL     1      30.278  17.490  11.278  0.00  0.00    +0.149 HD
BRANCH  41  43
ATOM     43  C   UNL     1      28.568  18.756  11.497  0.00  0.00    +0.109 C 
BRANCH  43  44
ATOM     44  C   UNL     1      28.942  20.146  11.010  0.00  0.00    +0.054 C 
BRANCH  44  45
ATOM     45  C   UNL     1      29.576  20.928  12.148  0.00  0.00    -0.046 A 
ATOM     46  C   UNL     1      29.645  20.353  13.467  0.00  0.00    +0.007 A 
ATOM     47  C   UNL     1      30.246  21.094  14.545  0.00  0.00    +0.045 A 
ATOM     48  C   UNL     1      30.316  20.519  15.863  0.00  0.00    +0.117 A 
ATOM     49  C   UNL     1      29.784  19.203  16.103  0.00  0.00    +0.045 A 
ATOM     50  C   UNL     1      30.109  22.244  11.908  0.00  0.00    +0.007 A 
BRANCH  48  51
ATOM     51  O   UNL     1      30.909  21.250  16.926  0.00  0.00    -0.507 OA
ATOM     52  H   UNL     1      30.586  22.102  17.146  0.00  0.00    +0.292 HD
ENDBRANCH  48  51
ENDBRANCH  44  45
ENDBRANCH  43  44
ENDBRANCH  41  43
ENDBRANCH  38  39
ENDBRANCH   3  37
TORSDOF 15
ENDMDL
MODEL 4
REMARK VINA RESULT:      -6.9      3.648     12.276
REMARK  Name = 
REMARK  17 active torsions:
REMARK  status: ('A' for Active; 'I' for Inactive)
REMARK    1  A    between atoms: C_1  and  O_2
REMARK    2  A    between atoms: O_2  and  C_3
REMARK    3  A    between atoms: C_5  and  C_34
REMARK    4  A    between atoms: C_10  and  C_25
REMARK    5  A    between atoms: C_11  and  C_12
REMARK    6  A    between atoms: N_14  and  C_15
REMARK    7  A    between atoms: C_15  and  C_16
REMARK    8  A    between atoms: C_16  and  C_18
REMARK    9  A    between atoms: C_21  and  O_24
REMARK   10  A    between atoms: C_27  and  O_32
REMARK   11  A    between atoms: C_28  and  O_31
REMARK   12  A    between atoms: O_32  and  C_33
REMARK   13  A    between atoms: C_35  and  C_36
REMARK   14  A    between atoms: N_38  and  C_39
REMARK   15  A    between atoms: C_39  and  C_40
REMARK   16  A    between atoms: C_40  and  C_41
REMARK   17  A    between atoms: C_44  and  O_47
REMARK                            x       y       z     vdW  Elec       q    Type
REMARK                         _______ _______ _______ _____ _____    ______ ____
ROOT
ATOM      1  C   UNL     1      34.116  12.434   6.326  0.00  0.00    +0.162 A 
ATOM      2  C   UNL     1      35.179  11.553   5.918  0.00  0.00    +0.057 A 
ATOM      3  C   UNL     1      36.430  11.552   6.636  0.00  0.00    -0.021 A 
ATOM      4  C   UNL     1      36.614  12.432   7.762  0.00  0.00    +0.016 A 
ATOM      5  C   UNL     1      35.550  13.313   8.169  0.00  0.00    +0.014 A 
ATOM      6  C   UNL     1      36.046  16.913  10.593  0.00  0.00    +0.167 A 
ATOM      7  O   UNL     1      37.095  16.045  10.191  0.00  0.00    -0.479 OA
ATOM      8  C   UNL     1      36.912  15.177   9.081  0.00  0.00    +0.220 C 
ATOM      9  C   UNL     1      35.746  14.242   9.356  0.00  0.00    +0.153 C 
ENDROOT
BRANCH   8  10
ATOM     10  C   UNL     1      38.175  14.360   8.864  0.00  0.00    -0.003 A 
ATOM     11  C   UNL     1      39.011  14.618   7.720  0.00  0.00    +0.056 A 
ATOM     12  C   UNL     1      40.208  13.844   7.512  0.00  0.00    +0.162 A 
ATOM     13  C   UNL     1      40.570  12.813   8.450  0.00  0.00    +0.158 A 
ATOM     14  C   UNL     1      41.767  12.039   8.244  0.00  0.00    +0.049 A 
ATOM     15  C   UNL     1      38.537  13.328   9.801  0.00  0.00    +0.011 A 
BRANCH  13  16
ATOM     16  O   UNL     1      39.745  12.558   9.578  0.00  0.00    -0.503 OA
ATOM     17  H   UNL     1      40.125  12.246  10.375  0.00  0.00    +0.292 HD
ENDBRANCH  13  16
BRANCH  12  18
ATOM     18  O   UNL     1      41.033  14.099   6.385  0.00  0.00    -0.491 OA
ATOM     19  C   UNL     1      40.446  14.379   5.123  0.00  0.00    +0.277 C 
ENDBRANCH  12  18
ENDBRANCH   8  10
BRANCH   9  20
ATOM     20  C   UNL     1      34.482  15.058   9.574  0.00  0.00    +0.225 C 
ATOM     21  O   UNL     1      33.929  15.079  10.718  0.00  0.00    -0.275 OA
ATOM     22  N   UNL     1      33.898  15.820   8.462  0.00  0.00    -0.307 N 
ATOM     23  H   UNL     1      34.326  15.804   7.575  0.00  0.00    +0.149 HD
BRANCH  22  24
ATOM     24  C   UNL     1      32.675  16.608   8.673  0.00  0.00    +0.184 C 
BRANCH  24  25
ATOM     25  C   UNL     1      31.647  16.241   7.615  0.00  0.00    +0.180 C 
ATOM     26  O   UNL     1      32.012  16.052   6.412  0.00  0.00    -0.290 OA
BRANCH  25  27
ATOM     27  C   UNL     1      30.182  16.099   7.996  0.00  0.00    +0.019 A 
ATOM     28  C   UNL     1      29.320  17.254   7.986  0.00  0.00    +0.015 A 
ATOM     29  C   UNL     1      27.933  17.119   8.347  0.00  0.00    +0.046 A 
ATOM     30  C   UNL     1      27.071  18.274   8.337  0.00  0.00    +0.117 A 
ATOM     31  C   UNL     1      27.597  19.562   7.966  0.00  0.00    +0.046 A 
ATOM     32  C   UNL     1      29.656  14.811   8.367  0.00  0.00    +0.015 A 
BRANCH  30  33
ATOM     33  O   UNL     1      25.703  18.141   8.693  0.00  0.00    -0.507 OA
ATOM     34  H   UNL     1      25.186  17.454   8.321  0.00  0.00    +0.292 HD
ENDBRANCH  30  33
ENDBRANCH  25  27
ENDBRANCH  24  25
ENDBRANCH  22  24
ENDBRANCH   9  20
BRANCH   1  36
ATOM     35  C   UNL     1      31.662  12.596   6.323  0.00  0.00    +0.277 C 
ATOM     36  O   UNL     1      32.885  12.436   5.619  0.00  0.00    -0.491 OA
ENDBRANCH   1  36
BRANCH   3  37
ATOM     37  C   UNL     1      37.552  10.622   6.206  0.00  0.00    +0.013 C 
ATOM     38  C   UNL     1      38.772  11.131   5.886  0.00  0.00    +0.068 C 
BRANCH  38  39
ATOM     39  C   UNL     1      39.895  10.201   5.456  0.00  0.00    +0.237 C 
ATOM     40  O   UNL     1      40.324  10.234   4.261  0.00  0.00    -0.271 OA
ATOM     41  N   UNL     1      40.483   9.262   6.423  0.00  0.00    -0.312 N 
ATOM     42  H   UNL     1      40.150   9.237   7.349  0.00  0.00    +0.149 HD
BRANCH  41  43
ATOM     43  C   UNL     1      41.569   8.363   6.007  0.00  0.00    +0.109 C 
BRANCH  43  44
ATOM     44  C   UNL     1      41.228   6.938   6.409  0.00  0.00    +0.054 C 
BRANCH  44  45
ATOM     45  C   UNL     1      40.717   6.178   5.196  0.00  0.00    -0.046 A 
ATOM     46  C   UNL     1      39.635   6.717   4.412  0.00  0.00    +0.007 A 
ATOM     47  C   UNL     1      39.150   5.997   3.263  0.00  0.00    +0.045 A 
ATOM     48  C   UNL     1      38.070   6.536   2.478  0.00  0.00    +0.117 A 
ATOM     49  C   UNL     1      37.474   7.795   2.844  0.00  0.00    +0.045 A 
ATOM     50  C   UNL     1      41.313   4.919   4.830  0.00  0.00    +0.007 A 
BRANCH  48  51
ATOM     51  O   UNL     1      37.592   5.826   1.345  0.00  0.00    -0.507 OA
ATOM     52  H   UNL     1      38.017   5.036   1.074  0.00  0.00    +0.292 HD
ENDBRANCH  48  51
ENDBRANCH  44  45
ENDBRANCH  43  44
ENDBRANCH  41  43
ENDBRANCH  38  39
ENDBRANCH   3  37
TORSDOF 15
ENDMDL
MODEL 5
REMARK VINA RESULT:      -6.8      4.177     12.760
REMARK  Name = 
REMARK  17 active torsions:
REMARK  status: ('A' for Active; 'I' for Inactive)
REMARK    1  A    between atoms: C_1  and  O_2
REMARK    2  A    between atoms: O_2  and  C_3
REMARK    3  A    between atoms: C_5  and  C_34
REMARK    4  A    between atoms: C_10  and  C_25
REMARK    5  A    between atoms: C_11  and  C_12
REMARK    6  A    between atoms: N_14  and  C_15
REMARK    7  A    between atoms: C_15  and  C_16
REMARK    8  A    between atoms: C_16  and  C_18
REMARK    9  A    between atoms: C_21  and  O_24
REMARK   10  A    between atoms: C_27  and  O_32
REMARK   11  A    between atoms: C_28  and  O_31
REMARK   12  A    between atoms: O_32  and  C_33
REMARK   13  A    between atoms: C_35  and  C_36
REMARK   14  A    between atoms: N_38  and  C_39
REMARK   15  A    between atoms: C_39  and  C_40
REMARK   16  A    between atoms: C_40  and  C_41
REMARK   17  A    between atoms: C_44  and  O_47
REMARK                            x       y       z     vdW  Elec       q    Type
REMARK                         _______ _______ _______ _____ _____    ______ ____
ROOT
ATOM      1  C   UNL     1      34.322  12.198   6.514  0.00  0.00    +0.162 A 
ATOM      2  C   UNL     1      35.390  11.320   6.114  0.00  0.00    +0.057 A 
ATOM      3  C   UNL     1      36.661  11.375   6.792  0.00  0.00    -0.021 A 
ATOM      4  C   UNL     1      36.861  12.309   7.870  0.00  0.00    +0.016 A 
ATOM      5  C   UNL     1      35.793  13.188   8.270  0.00  0.00    +0.014 A 
ATOM      6  C   UNL     1      36.288  16.905  10.511  0.00  0.00    +0.167 A 
ATOM      7  O   UNL     1      37.342  16.039  10.116  0.00  0.00    -0.479 OA
ATOM      8  C   UNL     1      37.143  15.118   9.053  0.00  0.00    +0.220 C 
ATOM      9  C   UNL     1      36.005  14.175   9.406  0.00  0.00    +0.153 C 
ENDROOT
BRANCH   8  10
ATOM     10  C   UNL     1      38.416  14.315   8.834  0.00  0.00    -0.003 A 
ATOM     11  C   UNL     1      39.207  14.529   7.650  0.00  0.00    +0.056 A 
ATOM     12  C   UNL     1      40.412  13.769   7.441  0.00  0.00    +0.162 A 
ATOM     13  C   UNL     1      40.827  12.796   8.417  0.00  0.00    +0.158 A 
ATOM     14  C   UNL     1      42.033  12.036   8.210  0.00  0.00    +0.049 A 
ATOM     15  C   UNL     1      38.831  13.342   9.811  0.00  0.00    +0.011 A 
BRANCH  13  16
ATOM     16  O   UNL     1      40.047  12.585   9.586  0.00  0.00    -0.503 OA
ATOM     17  H   UNL     1      39.451  13.246   9.876  0.00  0.00    +0.292 HD
ENDBRANCH  13  16
BRANCH  12  18
ATOM     18  O   UNL     1      41.193  13.980   6.274  0.00  0.00    -0.491 OA
ATOM     19  C   UNL     1      40.556  14.216   5.027  0.00  0.00    +0.277 C 
ENDBRANCH  12  18
ENDBRANCH   8  10
BRANCH   9  20
ATOM     20  C   UNL     1      34.732  14.975   9.626  0.00  0.00    +0.225 C 
ATOM     21  O   UNL     1      34.232  15.067  10.791  0.00  0.00    -0.275 OA
ATOM     22  N   UNL     1      34.079  15.642   8.491  0.00  0.00    -0.307 N 
ATOM     23  H   UNL     1      34.466  15.571   7.589  0.00  0.00    +0.149 HD
BRANCH  22  24
ATOM     24  C   UNL     1      32.846  16.416   8.704  0.00  0.00    +0.184 C 
BRANCH  24  25
ATOM     25  C   UNL     1      31.643  15.563   8.338  0.00  0.00    +0.180 C 
ATOM     26  O   UNL     1      31.604  14.339   8.679  0.00  0.00    -0.290 OA
BRANCH  25  27
ATOM     27  C   UNL     1      30.485  16.174   7.564  0.00  0.00    +0.019 A 
ATOM     28  C   UNL     1      30.549  16.268   6.128  0.00  0.00    +0.015 A 
ATOM     29  C   UNL     1      29.453  16.847   5.396  0.00  0.00    +0.046 A 
ATOM     30  C   UNL     1      29.516  16.941   3.960  0.00  0.00    +0.117 A 
ATOM     31  C   UNL     1      30.676  16.456   3.257  0.00  0.00    +0.046 A 
ATOM     32  C   UNL     1      29.326  16.659   8.267  0.00  0.00    +0.015 A 
BRANCH  30  33
ATOM     33  O   UNL     1      28.435  17.511   3.237  0.00  0.00    -0.507 OA
ATOM     34  H   UNL     1      27.614  17.662   3.663  0.00  0.00    +0.292 HD
ENDBRANCH  30  33
ENDBRANCH  25  27
ENDBRANCH  24  25
ENDBRANCH  22  24
ENDBRANCH   9  20
BRANCH   1  36
ATOM     35  C   UNL     1      32.482  13.334   5.343  0.00  0.00    +0.277 C 
ATOM     36  O   UNL     1      33.070  12.144   5.846  0.00  0.00    -0.491 OA
ENDBRANCH   1  36
BRANCH   3  37
ATOM     37  C   UNL     1      37.789  10.448   6.370  0.00  0.00    +0.013 C 
ATOM     38  C   UNL     1      38.986  10.964   5.984  0.00  0.00    +0.068 C 
BRANCH  38  39
ATOM     39  C   UNL     1      40.114  10.037   5.562  0.00  0.00    +0.237 C 
ATOM     40  O   UNL     1      40.601  10.120   4.392  0.00  0.00    -0.271 OA
ATOM     41  N   UNL     1      40.641   9.042   6.509  0.00  0.00    -0.312 N 
ATOM     42  H   UNL     1      40.264   8.978   7.415  0.00  0.00    +0.149 HD
BRANCH  41  43
ATOM     43  C   UNL     1      41.732   8.145   6.101  0.00  0.00    +0.109 C 
BRANCH  43  44
ATOM     44  C   UNL     1      41.265   6.702   6.199  0.00  0.00    +0.054 C 
BRANCH  44  45
ATOM     45  C   UNL     1      42.428   5.772   5.897  0.00  0.00    -0.046 A 
ATOM     46  C   UNL     1      43.268   5.298   6.967  0.00  0.00    +0.007 A 
ATOM     47  C   UNL     1      44.370   4.416   6.680  0.00  0.00    +0.045 A 
ATOM     48  C   UNL     1      45.209   3.942   7.750  0.00  0.00    +0.117 A 
ATOM     49  C   UNL     1      44.947   4.351   9.106  0.00  0.00    +0.045 A 
ATOM     50  C   UNL     1      42.690   5.363   4.541  0.00  0.00    +0.007 A 
BRANCH  48  51
ATOM     51  O   UNL     1      46.296   3.072   7.468  0.00  0.00    -0.507 OA
ATOM     52  H   UNL     1      46.138   2.245   7.058  0.00  0.00    +0.292 HD
ENDBRANCH  48  51
ENDBRANCH  44  45
ENDBRANCH  43  44
ENDBRANCH  41  43
ENDBRANCH  38  39
ENDBRANCH   3  37
TORSDOF 15
ENDMDL
MODEL 6
REMARK VINA RESULT:      -6.7      2.834     12.985
REMARK  Name = 
REMARK  17 active torsions:
REMARK  status: ('A' for Active; 'I' for Inactive)
REMARK    1  A    between atoms: C_1  and  O_2
REMARK    2  A    between atoms: O_2  and  C_3
REMARK    3  A    between atoms: C_5  and  C_34
REMARK    4  A    between atoms: C_10  and  C_25
REMARK    5  A    between atoms: C_11  and  C_12
REMARK    6  A    between atoms: N_14  and  C_15
REMARK    7  A    between atoms: C_15  and  C_16
REMARK    8  A    between atoms: C_16  and  C_18
REMARK    9  A    between atoms: C_21  and  O_24
REMARK   10  A    between atoms: C_27  and  O_32
REMARK   11  A    between atoms: C_28  and  O_31
REMARK   12  A    between atoms: O_32  and  C_33
REMARK   13  A    between atoms: C_35  and  C_36
REMARK   14  A    between atoms: N_38  and  C_39
REMARK   15  A    between atoms: C_39  and  C_40
REMARK   16  A    between atoms: C_40  and  C_41
REMARK   17  A    between atoms: C_44  and  O_47
REMARK                            x       y       z     vdW  Elec       q    Type
REMARK                         _______ _______ _______ _____ _____    ______ ____
ROOT
ATOM      1  C   UNL     1      34.164  12.600   6.452  0.00  0.00    +0.162 A 
ATOM      2  C   UNL     1      35.166  11.650   6.043  0.00  0.00    +0.057 A 
ATOM      3  C   UNL     1      36.439  11.609   6.719  0.00  0.00    -0.021 A 
ATOM      4  C   UNL     1      36.707  12.518   7.804  0.00  0.00    +0.016 A 
ATOM      5  C   UNL     1      35.704  13.468   8.212  0.00  0.00    +0.014 A 
ATOM      6  C   UNL     1      36.469  17.123  10.480  0.00  0.00    +0.167 A 
ATOM      7  O   UNL     1      37.457  16.186  10.078  0.00  0.00    -0.479 OA
ATOM      8  C   UNL     1      37.191  15.289   9.008  0.00  0.00    +0.220 C 
ATOM      9  C   UNL     1      35.989  14.428   9.356  0.00  0.00    +0.153 C 
ENDROOT
BRANCH   8  10
ATOM     10  C   UNL     1      38.403  14.399   8.781  0.00  0.00    -0.003 A 
ATOM     11  C   UNL     1      39.178  14.533   7.574  0.00  0.00    +0.056 A 
ATOM     12  C   UNL     1      40.325  13.690   7.357  0.00  0.00    +0.162 A 
ATOM     13  C   UNL     1      40.698  12.714   8.348  0.00  0.00    +0.158 A 
ATOM     14  C   UNL     1      41.846  11.870   8.133  0.00  0.00    +0.049 A 
ATOM     15  C   UNL     1      38.776  13.423   9.772  0.00  0.00    +0.011 A 
BRANCH  13  16
ATOM     16  O   UNL     1      39.934  12.582   9.538  0.00  0.00    -0.503 OA
ATOM     17  H   UNL     1      40.187  11.960  10.191  0.00  0.00    +0.292 HD
ENDBRANCH  13  16
BRANCH  12  18
ATOM     18  O   UNL     1      41.089  13.821   6.168  0.00  0.00    -0.491 OA
ATOM     19  C   UNL     1      41.892  14.974   5.964  0.00  0.00    +0.277 C 
ENDBRANCH  12  18
ENDBRANCH   8  10
BRANCH   9  20
ATOM     20  C   UNL     1      34.777  15.316   9.584  0.00  0.00    +0.225 C 
ATOM     21  O   UNL     1      34.083  15.185  10.640  0.00  0.00    -0.275 OA
ATOM     22  N   UNL     1      34.407  16.326   8.582  0.00  0.00    -0.307 N 
ATOM     23  H   UNL     1      34.944  16.427   7.763  0.00  0.00    +0.149 HD
BRANCH  22  24
ATOM     24  C   UNL     1      33.234  17.185   8.802  0.00  0.00    +0.184 C 
BRANCH  24  25
ATOM     25  C   UNL     1      32.000  16.517   8.218  0.00  0.00    +0.180 C 
ATOM     26  O   UNL     1      32.043  16.010   7.053  0.00  0.00    -0.290 OA
BRANCH  25  27
ATOM     27  C   UNL     1      30.714  16.453   9.027  0.00  0.00    +0.019 A 
ATOM     28  C   UNL     1      30.463  17.429  10.057  0.00  0.00    +0.015 A 
ATOM     29  C   UNL     1      29.246  17.369  10.824  0.00  0.00    +0.046 A 
ATOM     30  C   UNL     1      28.995  18.345  11.853  0.00  0.00    +0.117 A 
ATOM     31  C   UNL     1      29.961  19.380  12.115  0.00  0.00    +0.046 A 
ATOM     32  C   UNL     1      29.749  15.418   8.765  0.00  0.00    +0.015 A 
BRANCH  30  33
ATOM     33  O   UNL     1      27.794  18.286  12.609  0.00  0.00    -0.507 OA
ATOM     34  H   UNL     1      27.090  17.734  12.329  0.00  0.00    +0.292 HD
ENDBRANCH  30  33
ENDBRANCH  25  27
ENDBRANCH  24  25
ENDBRANCH  22  24
ENDBRANCH   9  20
BRANCH   1  36
ATOM     35  C   UNL     1      31.709  12.704   6.538  0.00  0.00    +0.277 C 
ATOM     36  O   UNL     1      32.911  12.641   5.786  0.00  0.00    -0.491 OA
ENDBRANCH   1  36
BRANCH   3  37
ATOM     37  C   UNL     1      37.497  10.606   6.288  0.00  0.00    +0.013 C 
ATOM     38  C   UNL     1      38.652  11.039   5.718  0.00  0.00    +0.068 C 
BRANCH  38  39
ATOM     39  C   UNL     1      39.710  10.036   5.287  0.00  0.00    +0.237 C 
ATOM     40  O   UNL     1      39.896   9.800   4.053  0.00  0.00    -0.271 OA
ATOM     41  N   UNL     1      40.516   9.338   6.299  0.00  0.00    -0.312 N 
ATOM     42  H   UNL     1      40.372   9.520   7.255  0.00  0.00    +0.149 HD
BRANCH  41  43
ATOM     43  C   UNL     1      41.539   8.368   5.882  0.00  0.00    +0.109 C 
BRANCH  43  44
ATOM     44  C   UNL     1      41.272   7.030   6.552  0.00  0.00    +0.054 C 
BRANCH  44  45
ATOM     45  C   UNL     1      40.773   6.036   5.516  0.00  0.00    -0.046 A 
ATOM     46  C   UNL     1      41.526   4.837   5.247  0.00  0.00    +0.007 A 
ATOM     47  C   UNL     1      41.054   3.895   4.266  0.00  0.00    +0.045 A 
ATOM     48  C   UNL     1      41.806   2.696   3.998  0.00  0.00    +0.117 A 
ATOM     49  C   UNL     1      43.030   2.441   4.711  0.00  0.00    +0.045 A 
ATOM     50  C   UNL     1      39.549   6.291   4.803  0.00  0.00    +0.007 A 
BRANCH  48  51
ATOM     51  O   UNL     1      41.340   1.767   3.031  0.00  0.00    -0.507 OA
ATOM     52  H   UNL     1      41.795   1.671   2.218  0.00  0.00    +0.292 HD
ENDBRANCH  48  51
ENDBRANCH  44  45
ENDBRANCH  43  44
ENDBRANCH  41  43
ENDBRANCH  38  39
ENDBRANCH   3  37
TORSDOF 15
ENDMDL
MODEL 7
REMARK VINA RESULT:      -6.7     30.084     34.503
REMARK  Name = 
REMARK  17 active torsions:
REMARK  status: ('A' for Active; 'I' for Inactive)
REMARK    1  A    between atoms: C_1  and  O_2
REMARK    2  A    between atoms: O_2  and  C_3
REMARK    3  A    between atoms: C_5  and  C_34
REMARK    4  A    between atoms: C_10  and  C_25
REMARK    5  A    between atoms: C_11  and  C_12
REMARK    6  A    between atoms: N_14  and  C_15
REMARK    7  A    between atoms: C_15  and  C_16
REMARK    8  A    between atoms: C_16  and  C_18
REMARK    9  A    between atoms: C_21  and  O_24
REMARK   10  A    between atoms: C_27  and  O_32
REMARK   11  A    between atoms: C_28  and  O_31
REMARK   12  A    between atoms: O_32  and  C_33
REMARK   13  A    between atoms: C_35  and  C_36
REMARK   14  A    between atoms: N_38  and  C_39
REMARK   15  A    between atoms: C_39  and  C_40
REMARK   16  A    between atoms: C_40  and  C_41
REMARK   17  A    between atoms: C_44  and  O_47
REMARK                            x       y       z     vdW  Elec       q    Type
REMARK                         _______ _______ _______ _____ _____    ______ ____
ROOT
ATOM      1  C   UNL     1       3.279  -3.489   5.790  0.00  0.00    +0.162 A 
ATOM      2  C   UNL     1       4.216  -3.917   6.797  0.00  0.00    +0.057 A 
ATOM      3  C   UNL     1       5.531  -4.365   6.413  0.00  0.00    -0.021 A 
ATOM      4  C   UNL     1       5.908  -4.383   5.023  0.00  0.00    +0.016 A 
ATOM      5  C   UNL     1       4.972  -3.954   4.017  0.00  0.00    +0.014 A 
ATOM      6  C   UNL     1       5.174  -4.991  -0.222  0.00  0.00    +0.167 A 
ATOM      7  O   UNL     1       6.097  -5.414   0.770  0.00  0.00    -0.479 OA
ATOM      8  C   UNL     1       5.725  -5.395   2.141  0.00  0.00    +0.220 C 
ATOM      9  C   UNL     1       5.370  -3.975   2.550  0.00  0.00    +0.153 C 
ENDROOT
BRANCH   8  10
ATOM     10  C   UNL     1       6.886  -5.891   2.989  0.00  0.00    -0.003 A 
ATOM     11  C   UNL     1       6.712  -7.032   3.851  0.00  0.00    +0.056 A 
ATOM     12  C   UNL     1       7.811  -7.502   4.654  0.00  0.00    +0.162 A 
ATOM     13  C   UNL     1       9.084  -6.832   4.595  0.00  0.00    +0.158 A 
ATOM     14  C   UNL     1      10.184  -7.301   5.397  0.00  0.00    +0.049 A 
ATOM     15  C   UNL     1       8.159  -5.221   2.929  0.00  0.00    +0.011 A 
BRANCH  13  16
ATOM     16  O   UNL     1       9.255  -5.706   3.745  0.00  0.00    -0.503 OA
ATOM     17  H   UNL     1       8.693  -4.963   3.833  0.00  0.00    +0.292 HD
ENDBRANCH  13  16
BRANCH  12  18
ATOM     18  O   UNL     1       7.640  -8.626   5.503  0.00  0.00    -0.491 OA
ATOM     19  C   UNL     1       6.860  -8.514   6.684  0.00  0.00    +0.277 C 
ENDBRANCH  12  18
ENDBRANCH   8  10
BRANCH   9  20
ATOM     20  C   UNL     1       4.210  -3.478   1.704  0.00  0.00    +0.225 C 
ATOM     21  O   UNL     1       3.107  -4.110   1.701  0.00  0.00    -0.275 OA
ATOM     22  N   UNL     1       4.364  -2.267   0.885  0.00  0.00    -0.307 N 
ATOM     23  H   UNL     1       5.218  -1.777   0.886  0.00  0.00    +0.149 HD
BRANCH  22  24
ATOM     24  C   UNL     1       3.242  -1.787   0.065  0.00  0.00    +0.184 C 
BRANCH  24  25
ATOM     25  C   UNL     1       3.776  -0.933  -1.074  0.00  0.00    +0.180 C 
ATOM     26  O   UNL     1       4.968  -1.096  -1.485  0.00  0.00    -0.290 OA
BRANCH  25  27
ATOM     27  C   UNL     1       2.885   0.114  -1.722  0.00  0.00    +0.019 A 
ATOM     28  C   UNL     1       3.210   1.511  -1.599  0.00  0.00    +0.015 A 
ATOM     29  C   UNL     1       2.365   2.503  -2.213  0.00  0.00    +0.046 A 
ATOM     30  C   UNL     1       2.690   3.901  -2.091  0.00  0.00    +0.117 A 
ATOM     31  C   UNL     1       3.859   4.307  -1.355  0.00  0.00    +0.046 A 
ATOM     32  C   UNL     1       1.715  -0.292  -2.458  0.00  0.00    +0.015 A 
BRANCH  30  33
ATOM     33  O   UNL     1       1.857   4.879  -2.696  0.00  0.00    -0.507 OA
ATOM     34  H   UNL     1       1.841   5.754  -2.360  0.00  0.00    +0.292 HD
ENDBRANCH  30  33
ENDBRANCH  25  27
ENDBRANCH  24  25
ENDBRANCH  22  24
ENDBRANCH   9  20
BRANCH   1  36
ATOM     35  C   UNL     1       1.161  -2.373   5.227  0.00  0.00    +0.277 C 
ATOM     36  O   UNL     1       1.984  -3.048   6.168  0.00  0.00    -0.491 OA
ENDBRANCH   1  36
BRANCH   3  37
ATOM     37  C   UNL     1       6.520  -4.817   7.476  0.00  0.00    +0.013 C 
ATOM     38  C   UNL     1       6.146  -4.850   8.783  0.00  0.00    +0.068 C 
BRANCH  38  39
ATOM     39  C   UNL     1       7.135  -5.302   9.845  0.00  0.00    +0.237 C 
ATOM     40  O   UNL     1       7.358  -6.540  10.019  0.00  0.00    -0.271 OA
ATOM     41  N   UNL     1       7.831  -4.305  10.672  0.00  0.00    -0.312 N 
ATOM     42  H   UNL     1       7.658  -3.346  10.538  0.00  0.00    +0.149 HD
BRANCH  41  43
ATOM     43  C   UNL     1       8.787  -4.742  11.700  0.00  0.00    +0.109 C 
BRANCH  43  44
ATOM     44  C   UNL     1       8.615  -3.892  12.947  0.00  0.00    +0.054 C 
BRANCH  44  45
ATOM     45  C   UNL     1       9.423  -4.493  14.086  0.00  0.00    -0.046 A 
ATOM     46  C   UNL     1      10.811  -4.143  14.248  0.00  0.00    +0.007 A 
ATOM     47  C   UNL     1      11.575  -4.713  15.327  0.00  0.00    +0.045 A 
ATOM     48  C   UNL     1      12.962  -4.363  15.489  0.00  0.00    +0.117 A 
ATOM     49  C   UNL     1      13.585  -3.445  14.572  0.00  0.00    +0.045 A 
ATOM     50  C   UNL     1       8.800  -5.411  15.004  0.00  0.00    +0.007 A 
BRANCH  48  51
ATOM     51  O   UNL     1      13.717  -4.924  16.553  0.00  0.00    -0.507 OA
ATOM     52  H   UNL     1      14.106  -5.771  16.455  0.00  0.00    +0.292 HD
ENDBRANCH  48  51
ENDBRANCH  44  45
ENDBRANCH  43  44
ENDBRANCH  41  43
ENDBRANCH  38  39
ENDBRANCH   3  37
TORSDOF 15
ENDMDL
MODEL 8
REMARK VINA RESULT:      -6.7      1.822      2.142
REMARK  Name = 
REMARK  17 active torsions:
REMARK  status: ('A' for Active; 'I' for Inactive)
REMARK    1  A    between atoms: C_1  and  O_2
REMARK    2  A    between atoms: O_2  and  C_3
REMARK    3  A    between atoms: C_5  and  C_34
REMARK    4  A    between atoms: C_10  and  C_25
REMARK    5  A    between atoms: C_11  and  C_12
REMARK    6  A    between atoms: N_14  and  C_15
REMARK    7  A    between atoms: C_15  and  C_16
REMARK    8  A    between atoms: C_16  and  C_18
REMARK    9  A    between atoms: C_21  and  O_24
REMARK   10  A    between atoms: C_27  and  O_32
REMARK   11  A    between atoms: C_28  and  O_31
REMARK   12  A    between atoms: O_32  and  C_33
REMARK   13  A    between atoms: C_35  and  C_36
REMARK   14  A    between atoms: N_38  and  C_39
REMARK   15  A    between atoms: C_39  and  C_40
REMARK   16  A    between atoms: C_40  and  C_41
REMARK   17  A    between atoms: C_44  and  O_47
REMARK                            x       y       z     vdW  Elec       q    Type
REMARK                         _______ _______ _______ _____ _____    ______ ____
ROOT
ATOM      1  C   UNL     1      32.102  13.351   6.926  0.00  0.00    +0.162 A 
ATOM      2  C   UNL     1      31.188  14.219   7.623  0.00  0.00    +0.057 A 
ATOM      3  C   UNL     1      31.694  15.224   8.524  0.00  0.00    -0.021 A 
ATOM      4  C   UNL     1      33.114  15.361   8.725  0.00  0.00    +0.016 A 
ATOM      5  C   UNL     1      34.027  14.493   8.028  0.00  0.00    +0.014 A 
ATOM      6  C   UNL     1      38.153  13.692   9.221  0.00  0.00    +0.167 A 
ATOM      7  O   UNL     1      37.252  14.547   9.909  0.00  0.00    -0.479 OA
ATOM      8  C   UNL     1      35.852  14.412   9.709  0.00  0.00    +0.220 C 
ATOM      9  C   UNL     1      35.525  14.637   8.242  0.00  0.00    +0.153 C 
ENDROOT
BRANCH   8  10
ATOM     10  C   UNL     1      35.118  15.440  10.555  0.00  0.00    -0.003 A 
ATOM     11  C   UNL     1      35.361  16.845  10.352  0.00  0.00    +0.056 A 
ATOM     12  C   UNL     1      34.666  17.820  11.154  0.00  0.00    +0.162 A 
ATOM     13  C   UNL     1      33.728  17.389  12.158  0.00  0.00    +0.158 A 
ATOM     14  C   UNL     1      33.032  18.362  12.960  0.00  0.00    +0.049 A 
ATOM     15  C   UNL     1      34.179  15.009  11.559  0.00  0.00    +0.011 A 
BRANCH  13  16
ATOM     16  O   UNL     1      33.488  16.003  12.358  0.00  0.00    -0.503 OA
ATOM     17  H   UNL     1      33.183  15.695  13.188  0.00  0.00    +0.292 HD
ENDBRANCH  13  16
BRANCH  12  18
ATOM     18  O   UNL     1      34.905  19.205  10.955  0.00  0.00    -0.491 OA
ATOM     19  C   UNL     1      35.368  19.672   9.696  0.00  0.00    +0.277 C 
ENDBRANCH  12  18
ENDBRANCH   8  10
BRANCH   9  20
ATOM     20  C   UNL     1      36.259  13.611   7.395  0.00  0.00    +0.225 C 
ATOM     21  O   UNL     1      36.193  12.377   7.693  0.00  0.00    -0.275 OA
ATOM     22  N   UNL     1      37.046  14.045   6.233  0.00  0.00    -0.307 N 
ATOM     23  H   UNL     1      37.098  15.001   6.002  0.00  0.00    +0.149 HD
BRANCH  22  24
ATOM     24  C   UNL     1      37.758  13.051   5.414  0.00  0.00    +0.184 C 
BRANCH  24  25
ATOM     25  C   UNL     1      39.238  13.396   5.372  0.00  0.00    +0.180 C 
ATOM     26  O   UNL     1      39.631  14.435   4.754  0.00  0.00    -0.290 OA
BRANCH  25  27
ATOM     27  C   UNL     1      40.247  12.497   6.068  0.00  0.00    +0.019 A 
ATOM     28  C   UNL     1      40.223  11.075   5.840  0.00  0.00    +0.015 A 
ATOM     29  C   UNL     1      41.179  10.224   6.499  0.00  0.00    +0.046 A 
ATOM     30  C   UNL     1      41.156   8.802   6.271  0.00  0.00    +0.117 A 
ATOM     31  C   UNL     1      40.177   8.232   5.382  0.00  0.00    +0.046 A 
ATOM     32  C   UNL     1      41.226  13.068   6.957  0.00  0.00    +0.015 A 
BRANCH  30  33
ATOM     33  O   UNL     1      42.099   7.963   6.921  0.00  0.00    -0.507 OA
ATOM     34  H   UNL     1      42.520   8.252   7.707  0.00  0.00    +0.292 HD
ENDBRANCH  30  33
ENDBRANCH  25  27
ENDBRANCH  24  25
ENDBRANCH  22  24
ENDBRANCH   9  20
BRANCH   1  36
ATOM     35  C   UNL     1      30.213  12.289   5.764  0.00  0.00    +0.277 C 
ATOM     36  O   UNL     1      31.604  12.361   6.039  0.00  0.00    -0.491 OA
ENDBRANCH   1  36
BRANCH   3  37
ATOM     37  C   UNL     1      30.729  16.140   9.260  0.00  0.00    +0.013 C 
ATOM     38  C   UNL     1      31.121  17.391   9.620  0.00  0.00    +0.068 C 
BRANCH  38  39
ATOM     39  C   UNL     1      30.156  18.307  10.355  0.00  0.00    +0.237 C 
ATOM     40  O   UNL     1      29.977  19.498   9.951  0.00  0.00    -0.271 OA
ATOM     41  N   UNL     1      29.431  17.815  11.536  0.00  0.00    -0.312 N 
ATOM     42  H   UNL     1      29.570  16.892  11.850  0.00  0.00    +0.149 HD
BRANCH  41  43
ATOM     43  C   UNL     1      28.498  18.700  12.248  0.00  0.00    +0.109 C 
BRANCH  43  44
ATOM     44  C   UNL     1      29.235  19.420  13.366  0.00  0.00    +0.054 C 
BRANCH  44  45
ATOM     45  C   UNL     1      28.361  19.455  14.609  0.00  0.00    -0.046 A 
ATOM     46  C   UNL     1      26.927  19.495  14.480  0.00  0.00    +0.007 A 
ATOM     47  C   UNL     1      26.099  19.529  15.657  0.00  0.00    +0.045 A 
ATOM     48  C   UNL     1      24.665  19.569  15.528  0.00  0.00    +0.117 A 
ATOM     49  C   UNL     1      24.060  19.577  14.222  0.00  0.00    +0.045 A 
ATOM     50  C   UNL     1      28.966  19.446  15.915  0.00  0.00    +0.007 A 
BRANCH  48  51
ATOM     51  O   UNL     1      23.849  19.601  16.690  0.00  0.00    -0.507 OA
ATOM     52  H   UNL     1      23.900  20.329  17.278  0.00  0.00    +0.292 HD
ENDBRANCH  48  51
ENDBRANCH  44  45
ENDBRANCH  43  44
ENDBRANCH  41  43
ENDBRANCH  38  39
ENDBRANCH   3  37
TORSDOF 15
ENDMDL
MODEL 9
REMARK VINA RESULT:      -6.7      3.938     13.730
REMARK  Name = 
REMARK  17 active torsions:
REMARK  status: ('A' for Active; 'I' for Inactive)
REMARK    1  A    between atoms: C_1  and  O_2
REMARK    2  A    between atoms: O_2  and  C_3
REMARK    3  A    between atoms: C_5  and  C_34
REMARK    4  A    between atoms: C_10  and  C_25
REMARK    5  A    between atoms: C_11  and  C_12
REMARK    6  A    between atoms: N_14  and  C_15
REMARK    7  A    between atoms: C_15  and  C_16
REMARK    8  A    between atoms: C_16  and  C_18
REMARK    9  A    between atoms: C_21  and  O_24
REMARK   10  A    between atoms: C_27  and  O_32
REMARK   11  A    between atoms: C_28  and  O_31
REMARK   12  A    between atoms: O_32  and  C_33
REMARK   13  A    between atoms: C_35  and  C_36
REMARK   14  A    between atoms: N_38  and  C_39
REMARK   15  A    between atoms: C_39  and  C_40
REMARK   16  A    between atoms: C_40  and  C_41
REMARK   17  A    between atoms: C_44  and  O_47
REMARK                            x       y       z     vdW  Elec       q    Type
REMARK                         _______ _______ _______ _____ _____    ______ ____
ROOT
ATOM      1  C   UNL     1      35.291  11.908   6.288  0.00  0.00    +0.162 A 
ATOM      2  C   UNL     1      35.515  10.958   5.230  0.00  0.00    +0.057 A 
ATOM      3  C   UNL     1      36.830  10.404   5.024  0.00  0.00    -0.021 A 
ATOM      4  C   UNL     1      37.919  10.801   5.879  0.00  0.00    +0.016 A 
ATOM      5  C   UNL     1      37.695  11.751   6.937  0.00  0.00    +0.014 A 
ATOM      6  C   UNL     1      40.794  14.137   8.884  0.00  0.00    +0.167 A 
ATOM      7  O   UNL     1      41.015  13.200   7.840  0.00  0.00    -0.479 OA
ATOM      8  C   UNL     1      39.940  12.808   6.998  0.00  0.00    +0.220 C 
ATOM      9  C   UNL     1      38.845  12.171   7.837  0.00  0.00    +0.153 C 
ENDROOT
BRANCH   8  10
ATOM     10  C   UNL     1      40.440  11.804   5.971  0.00  0.00    -0.003 A 
ATOM     11  C   UNL     1      41.084  10.591   6.405  0.00  0.00    +0.056 A 
ATOM     12  C   UNL     1      41.559   9.640   5.434  0.00  0.00    +0.162 A 
ATOM     13  C   UNL     1      41.389   9.902   4.028  0.00  0.00    +0.158 A 
ATOM     14  C   UNL     1      41.862   8.951   3.055  0.00  0.00    +0.049 A 
ATOM     15  C   UNL     1      40.270  12.066   4.566  0.00  0.00    +0.011 A 
BRANCH  13  16
ATOM     16  O   UNL     1      40.753  11.098   3.600  0.00  0.00    -0.503 OA
ATOM     17  H   UNL     1      40.697  11.297   2.686  0.00  0.00    +0.292 HD
ENDBRANCH  13  16
BRANCH  12  18
ATOM     18  O   UNL     1      42.193   8.444   5.860  0.00  0.00    -0.491 OA
ATOM     19  C   UNL     1      41.423   7.394   6.426  0.00  0.00    +0.277 C 
ENDBRANCH  12  18
ENDBRANCH   8  10
BRANCH   9  20
ATOM     20  C   UNL     1      38.345  13.174   8.864  0.00  0.00    +0.225 C 
ATOM     21  O   UNL     1      38.282  12.849  10.091  0.00  0.00    -0.275 OA
ATOM     22  N   UNL     1      37.931  14.518   8.438  0.00  0.00    -0.307 N 
ATOM     23  H   UNL     1      37.979  14.769   7.487  0.00  0.00    +0.149 HD
BRANCH  22  24
ATOM     24  C   UNL     1      37.446  15.487   9.431  0.00  0.00    +0.184 C 
BRANCH  24  25
ATOM     25  C   UNL     1      36.093  16.026   8.995  0.00  0.00    +0.180 C 
ATOM     26  O   UNL     1      35.933  16.456   7.809  0.00  0.00    -0.290 OA
BRANCH  25  27
ATOM     27  C   UNL     1      34.932  16.051   9.976  0.00  0.00    +0.019 A 
ATOM     28  C   UNL     1      33.578  15.975   9.491  0.00  0.00    +0.015 A 
ATOM     29  C   UNL     1      32.478  15.998  10.420  0.00  0.00    +0.046 A 
ATOM     30  C   UNL     1      31.124  15.922   9.935  0.00  0.00    +0.117 A 
ATOM     31  C   UNL     1      30.870  15.822   8.521  0.00  0.00    +0.046 A 
ATOM     32  C   UNL     1      35.186  16.151  11.389  0.00  0.00    +0.015 A 
BRANCH  30  33
ATOM     33  O   UNL     1      30.040  15.945  10.851  0.00  0.00    -0.507 OA
ATOM     34  H   UNL     1      29.920  15.237  11.454  0.00  0.00    +0.292 HD
ENDBRANCH  30  33
ENDBRANCH  25  27
ENDBRANCH  24  25
ENDBRANCH  22  24
ENDBRANCH   9  20
BRANCH   1  36
ATOM     35  C   UNL     1      33.819  13.861   6.547  0.00  0.00    +0.277 C 
ATOM     36  O   UNL     1      33.996  12.453   6.491  0.00  0.00    -0.491 OA
ENDBRANCH   1  36
BRANCH   3  37
ATOM     37  C   UNL     1      37.066   9.401   3.906  0.00  0.00    +0.013 C 
ATOM     38  C   UNL     1      38.169   8.607   3.928  0.00  0.00    +0.068 C 
BRANCH  38  39
ATOM     39  C   UNL     1      38.406   7.604   2.810  0.00  0.00    +0.237 C 
ATOM     40  O   UNL     1      38.754   8.008   1.657  0.00  0.00    -0.271 OA
ATOM     41  N   UNL     1      38.230   6.166   3.064  0.00  0.00    -0.312 N 
ATOM     42  H   UNL     1      37.960   5.853   3.957  0.00  0.00    +0.149 HD
BRANCH  41  43
ATOM     43  C   UNL     1      38.458   5.196   1.983  0.00  0.00    +0.109 C 
BRANCH  43  44
ATOM     44  C   UNL     1      39.477   4.163   2.436  0.00  0.00    +0.054 C 
BRANCH  44  45
ATOM     45  C   UNL     1      40.864   4.784   2.437  0.00  0.00    -0.046 A 
ATOM     46  C   UNL     1      41.722   4.626   3.583  0.00  0.00    +0.007 A 
ATOM     47  C   UNL     1      43.037   5.215   3.584  0.00  0.00    +0.045 A 
ATOM     48  C   UNL     1      43.896   5.057   4.729  0.00  0.00    +0.117 A 
ATOM     49  C   UNL     1      43.440   4.311   5.873  0.00  0.00    +0.045 A 
ATOM     50  C   UNL     1      41.319   5.530   1.293  0.00  0.00    +0.007 A 
BRANCH  48  51
ATOM     51  O   UNL     1      45.191   5.637   4.730  0.00  0.00    -0.507 OA
ATOM     52  H   UNL     1      45.560   5.958   5.529  0.00  0.00    +0.292 HD
ENDBRANCH  48  51
ENDBRANCH  44  45
ENDBRANCH  43  44
ENDBRANCH  41  43
ENDBRANCH  38  39
ENDBRANCH   3  37
TORSDOF 15
ENDMDL
