
 OpenBabel03102508543D

 19 19  0  0  0  0  0  0  0  0999 V2000
    0.9486   -0.0662   -0.0545 C   0  0  0  0  0  0  0  0  0  0  0  0
    2.3686   -0.0662   -0.0545 O   0  0  0  0  0  0  0  0  0  0  0  0
    3.0786    1.1394   -0.2968 C   0  0  0  0  0  0  0  0  0  0  0  0
    4.5188    1.1394   -0.2968 C   0  0  0  0  0  0  0  0  0  0  0  0
    5.2389   -0.0834   -0.0510 C   0  0  0  0  0  0  0  0  0  0  0  0
    4.5188   -1.3062    0.1948 C   0  0  0  0  0  0  0  0  0  0  0  0
    5.2389   -2.5290    0.4406 C   0  0  0  0  0  0  0  0  0  0  0  0
    2.3585    2.3622   -0.5426 C   0  0  0  0  0  0  0  0  0  0  0  0
    4.4789   -3.8195    0.7000 C   0  0  0  0  0  0  0  0  0  0  0  0
    5.1143   -4.8986    0.9169 O   0  0  0  0  0  0  0  0  0  0  0  0
    5.2288    2.3450   -0.5392 O   0  0  0  0  0  0  0  0  0  0  0  0
    0.5919   -1.0553    0.1444 H   0  0  0  0  0  0  0  0  0  0  0  0
    0.5919    0.2561   -1.0104 H   0  0  0  0  0  0  0  0  0  0  0  0
    0.5919    0.6004    0.7027 H   0  0  0  0  0  0  0  0  0  0  0  0
    6.2709   -0.0834   -0.0510 H   0  0  0  0  0  0  0  0  0  0  0  0
    3.4868   -1.3062    0.1948 H   0  0  0  0  0  0  0  0  0  0  0  0
    1.8425    3.2384   -0.7187 H   0  0  0  0  0  0  0  0  0  0  0  0
    3.4469   -3.8195    0.7000 H   0  0  0  0  0  0  0  0  0  0  0  0
    4.7603    3.1406   -0.6991 H   0  0  0  0  0  0  0  0  0  0  0  0
  1  2  1  0  0  0  0
  1 12  1  0  0  0  0
  1 13  1  0  0  0  0
  1 14  1  0  0  0  0
  2  3  1  0  0  0  0
  3  4  2  0  0  0  0
  3  8  1  0  0  0  0
  4  5  1  0  0  0  0
  4 11  1  0  0  0  0
  5  6  2  0  0  0  0
  5 15  1  0  0  0  0
  6  7  1  0  0  0  0
  6 16  1  0  0  0  0
  7  8  2  0  0  0  0
  7  9  1  0  0  0  0
  8 17  1  0  0  0  0
  9 10  2  0  0  0  0
  9 18  1  0  0  0  0
 11 19  1  0  0  0  0
M  END
$$$$
